/*---------------------------------------------------------------------------*\
| =========                 |                                                 |
| \\      /  F ield         | OpenFOAM: The Open Source CFD Toolbox           |
|  \\    /   O peration     | Version:  2.4.0                                 |
|   \\  /    A nd           | Web:      www.OpenFOAM.org                      |
|    \\/     M anipulation  |                                                 |
\*---------------------------------------------------------------------------*/
Build  : 2.4.0-cec9b1dc888a
Exec   : spraySootTimeFoam
Date   : Oct 27 2020
Time   : 11:23:35
Host   : "horitsukasanoMacBook-Pro.local"
PID    : 50149
Case   : /Users/hori/Documents/research_2018/201027_mazda_traning/sprayH_2mm_O2_15
nProcs : 1
sigFpe : Enabling floating point exception trapping (FOAM_SIGFPE).
fileModificationChecking : Monitoring run-time modified files using timeStampMaster
allowSystemOperations : Allowing user-supplied system call operations

// * * * * * * * * * * * * * * * * * * * * * * * * * * * * * * * * * * * * * //
Create time

Foam::TimePaths::TimePaths constructor 2
Foam::TimePaths::TimePaths constructor 2 end
Time constructor !!!! 1 
Create mesh for time = 0


Reading g
Creating combustion model

Selecting combustion model laminar<psiChemistryCombustion>
Selecting chemistry type 
{
    chemistrySolver speedCHEM;
    chemistryThermo psi;
}

constructor in basicChemistry!!!

Selecting thermodynamics package 
{
    type            hePsiThermo;
    mixture         reactingMixture;
    transport       sutherland;
    thermo          janaf;
    energy          sensibleEnthalpy;
    equationOfState perfectGas;
    specie          specie;
}

Selecting chemistryReader foamChemistryReader
multiComponentMixture 1 constructor
NUMBER of Species:: 121
chemistryModel: Number of species = 121 and reactions = 593
speedCHEM::chemistry_input start *******************
speedCHEM::chemistry_input end ***************
    using integrated reaction rate
Creating component thermo properties:
    multi-component carrier - 121 species
    liquids - 1 components
    solids - 0 components

Reading field U

Reading/calculating face flux field phi

Creating turbulence model

Selecting turbulence model type RASModel
Selecting RAS turbulence model RNGkEpsilon
 backwardsCompatibilityWallFunctions:: autoCreateWallFunctionField  mut
 backwardsCompatibilityWallFunctions:: autoCreateWallFunctionField  mut
RNGkEpsilonCoeffs
{
    Cmu             0.0845;
    C1              1.42;
    C2              1.68;
    C3              -0.33;
    sigmak          0.71942;
    sigmaEps        0.71942;
    Prt             1;
    eta0            4.38;
    beta            0.012;
}

Creating field dpdt

Creating field kinetic energy K

Initiation of sootMoment class
Class construction OK
MOMENT CLASS INITIATED
Initiation of sootMoment class end
--> FOAM Warning : 
    From function GeometricField<Type, PatchField, GeoMesh>::readIfPresent()
    in file /Users/hori/OpenFOAM/OpenFOAM-2.4.0/src/OpenFOAM/lnInclude/GeometricField.C at line 188
    read option IOobject::MUST_READ or MUST_READ_IF_MODIFIED suggests that a read constructor for field sMass would be more appropriate.
No finite volume options present


Constructing reacting cloud
Constructing particle forces
    Selecting particle force sphereDrag
Constructing cloud functions
    none
Constructing particle injection models
Creating injector: main
Selecting injection model coneNozzleInjection
    Constructing 3-D injection
Selecting distribution model fixedValue
Selecting dispersion model none
Selecting patch interaction model standardWallInteraction
Selecting stochastic collision model none
Selecting surface film model none
Selecting U integration scheme Euler
Selecting heat transfer model RanzMarshall
Selecting T integration scheme analytical
Foam::ReactingCloud<CloudType>::ReactingCloud 1
Selecting composition model singlePhaseMixture
Selecting phase change model liquidEvaporationBoil
Participating liquid species:
    NC7H16
Selecting AtomizationModel none
Selecting BreakupModel WAVEMTAB

 void Foam::SprayParcel<ParcelType>::readFields horihori
 c.size() 0

Average parcel mass: 5.1594203e-11
Selecting radiationModel none
Courant Number mean: 0 max: 0
Total cylinder mass: 0.0040360489

PIMPLE: Operating solver in PISO mode


Starting time loop

Courant Number mean: 0 max: 0
deltaT = 1.9607843e-06
Time = 1.96078e-06

SprayCloud.C:: evolve************

Solving 3-D cloud sprayCloud
 t0 -1e-08
 t1 1.9507843e-06
 timeStep0_ 0
 time  1.9607843e-06
KinematicCloud::info()*****************
Cloud: sprayCloud
    Current number of parcels       = 0
    Current mass in system          = 0
    Linear momentum                 = (0 0 0)
   |Linear momentum|                = 0
    Linear kinetic energy           = 0
    main:
        number of parcels added     = 0
        mass introduced             = 0
  this->surfaceFilm().info(Info); 
    Parcels absorbed into film      = 0
    New film detached parcels       = 0
  this->patchInteraction().info(Info); 
    Parcel fate (number, mass)
      - escape                      = 0, 0
      - stick                       = 0, 0
    Temperature min/max             = 0, 0
    Mass transfer phase change      = 0
    D10, D32, Dmax (mu)             = 0, 0, 0
    Liquid penetration 95% mass (m) = 0
diagonal:  Solving for rho, Initial residual = 0, Final residual = 0, No Iterations 0
PIMPLE: iteration 1
smoothSolver:  Solving for Ux, Initial residual = 0.99999999, Final residual = 4.9042056e-08, No Iterations 1
smoothSolver:  Solving for Uy, Initial residual = 0.99999999, Final residual = 5.265792e-08, No Iterations 1
smoothSolver:  Solving for Uz, Initial residual = 0.99999999, Final residual = 5.486595e-08, No Iterations 1
 Foam::scalar Foam::chemistryModel<CompType, ThermoType>::solve 
DILUPBiCG:  Solving for H, Initial residual = 0.99962028, Final residual = 1.4645867e-16, No Iterations 2
DILUPBiCG:  Solving for O, Initial residual = 0.99999885, Final residual = 1.4651867e-16, No Iterations 2
DILUPBiCG:  Solving for OH, Initial residual = 1, Final residual = 1.4651488e-16, No Iterations 2
DILUPBiCG:  Solving for HO2, Initial residual = 1, Final residual = 1.4651349e-16, No Iterations 2
DILUPBiCG:  Solving for H2O2, Initial residual = 0.99999999, Final residual = 1.4650963e-16, No Iterations 2
DILUPBiCG:  Solving for CH, Initial residual = 1.9240619e-41, Final residual = 1.9240619e-41, No Iterations 0
DILUPBiCG:  Solving for HCO, Initial residual = 1.7537211e-13, Final residual = 1.7537211e-13, No Iterations 0
DILUPBiCG:  Solving for CH2-1, Initial residual = 2.4822386e-36, Final residual = 2.4822386e-36, No Iterations 0
DILUPBiCG:  Solving for CH2-3, Initial residual = 9.7059353e-34, Final residual = 9.7059353e-34, No Iterations 0
DILUPBiCG:  Solving for CH2O, Initial residual = 8.9363039e-17, Final residual = 8.9363039e-17, No Iterations 0
DILUPBiCG:  Solving for CH3, Initial residual = 1.1608896e-40, Final residual = 1.1608896e-40, No Iterations 0
DILUPBiCG:  Solving for CH3O, Initial residual = 2.4197078e-35, Final residual = 2.4197078e-35, No Iterations 0
DILUPBiCG:  Solving for CH3O2, Initial residual = 5.946242e-39, Final residual = 5.946242e-39, No Iterations 0
DILUPBiCG:  Solving for CH4, Initial residual = 1.2120623e-41, Final residual = 1.2120623e-41, No Iterations 0
DILUPBiCG:  Solving for CH3O2H, Initial residual = 4.9862235e-43, Final residual = 4.9862235e-43, No Iterations 0
DILUPBiCG:  Solving for C2H, Initial residual = 5.7245628e-75, Final residual = 5.7245628e-75, No Iterations 0
DILUPBiCG:  Solving for HCCO, Initial residual = 2.7934605e-55, Final residual = 2.7934605e-55, No Iterations 0
DILUPBiCG:  Solving for C2H2, Initial residual = 3.4104734e-58, Final residual = 3.4104734e-58, No Iterations 0
DILUPBiCG:  Solving for CH2CO, Initial residual = 1.0198884e-44, Final residual = 1.0198884e-44, No Iterations 0
DILUPBiCG:  Solving for C2H3, Initial residual = 1.6155899e-73, Final residual = 1.6155899e-73, No Iterations 0
DILUPBiCG:  Solving for CH2CHO, Initial residual = 2.0377471e-62, Final residual = 2.0377471e-62, No Iterations 0
DILUPBiCG:  Solving for CH3CO, Initial residual = 1.6566414e-60, Final residual = 1.6566414e-60, No Iterations 0
DILUPBiCG:  Solving for C2H4, Initial residual = 6.5013545e-74, Final residual = 6.5013545e-74, No Iterations 0
DILUPBiCG:  Solving for CH3CHO, Initial residual = 2.0078582e-64, Final residual = 2.0078582e-64, No Iterations 0
DILUPBiCG:  Solving for C2H5, Initial residual = 1.8059596e-91, Final residual = 1.8059596e-91, No Iterations 0
DILUPBiCG:  Solving for C2H5O, Initial residual = 6.0219768e-88, Final residual = 6.0219768e-88, No Iterations 0
DILUPBiCG:  Solving for C3H2, Initial residual = 2.9810364e-107, Final residual = 2.9810364e-107, No Iterations 0
DILUPBiCG:  Solving for C3H3, Initial residual = 1.9637771e-114, Final residual = 1.9637771e-114, No Iterations 0
DILUPBiCG:  Solving for C3H4, Initial residual = 1.6333413e-113, Final residual = 1.6333413e-113, No Iterations 0
DILUPBiCG:  Solving for C3H5, Initial residual = 5.4276138e-129, Final residual = 5.4276138e-129, No Iterations 0
DILUPBiCG:  Solving for C3H6, Initial residual = 4.6173908e-132, Final residual = 4.6173908e-132, No Iterations 0
DILUPBiCG:  Solving for N-C3H7, Initial residual = 1.0766448e-146, Final residual = 1.0766448e-146, No Iterations 0
DILUPBiCG:  Solving for C3H8, Initial residual = 3.6457659e-148, Final residual = 3.6457659e-148, No Iterations 0
DILUPBiCG:  Solving for C4H2, Initial residual = 4.3568146e-144, Final residual = 4.3568146e-144, No Iterations 0
DILUPBiCG:  Solving for N-C4H3, Initial residual = 4.0302527e-151, Final residual = 4.0302527e-151, No Iterations 0
DILUPBiCG:  Solving for N-C4H5, Initial residual = 4.3751273e-161, Final residual = 4.3751273e-161, No Iterations 0
DILUPBiCG:  Solving for C4H7, Initial residual = 2.9230531e-178, Final residual = 2.9230531e-178, No Iterations 0
DILUPBiCG:  Solving for C4H8-1, Initial residual = 6.4930155e-181, Final residual = 6.4930155e-181, No Iterations 0
DILUPBiCG:  Solving for C4H9-1, Initial residual = 1.5929512e-200, Final residual = 1.5929512e-200, No Iterations 0
DILUPBiCG:  Solving for C6H3, Initial residual = 4.2736951e-268, Final residual = 4.2736951e-268, No Iterations 0
DILUPBiCG:  Solving for N-C6H5, Initial residual = 6.7526417e-248, Final residual = 6.7526417e-248, No Iterations 0
DILUPBiCG:  Solving for C6H5O, Initial residual = 3.4369033e-205, Final residual = 3.4369033e-205, No Iterations 0
DILUPBiCG:  Solving for C6H5OH, Initial residual = 1.9421635e-208, Final residual = 1.9421635e-208, No Iterations 0
DILUPBiCG:  Solving for A1, Initial residual = 1.7281664e-237, Final residual = 1.7281664e-237, No Iterations 0
DILUPBiCG:  Solving for A1-, Initial residual = 8.8765782e-238, Final residual = 8.8765782e-238, No Iterations 0
DILUPBiCG:  Solving for A1C2H, Initial residual = 7.4588107e-279, Final residual = 7.4588107e-279, No Iterations 0
DILUPBiCG:  Solving for A1C2H-, Initial residual = 0, Final residual = 0, No Iterations 0
DILUPBiCG:  Solving for A1C2H*, Initial residual = 0, Final residual = 0, No Iterations 0
DILUPBiCG:  Solving for N-A1C2H2, Initial residual = 2.0647924e-286, Final residual = 2.0647924e-286, No Iterations 0
DILUPBiCG:  Solving for I-A1C2H2, Initial residual = 1.2449745e-286, Final residual = 1.2449745e-286, No Iterations 0
DILUPBiCG:  Solving for CO, Initial residual = 0.99997456, Final residual = 1.4650535e-16, No Iterations 2
DILUPBiCG:  Solving for CO2, Initial residual = 1, Final residual = 1.4651458e-16, No Iterations 2
DILUPBiCG:  Solving for H2, Initial residual = 0.99990184, Final residual = 1.4650212e-16, No Iterations 2
DILUPBiCG:  Solving for H2O, Initial residual = 0.99999836, Final residual = 1.4651411e-16, No Iterations 2
DILUPBiCG:  Solving for O2, Initial residual = 0.99999957, Final residual = 1.4651398e-16, No Iterations 2
DILUPBiCG:  Solving for AR, Initial residual = 0, Final residual = 0, No Iterations 0
DILUPBiCG:  Solving for HOCH2O, Initial residual = 2.6934972e-25, Final residual = 2.6934972e-25, No Iterations 0
DILUPBiCG:  Solving for HOCHO, Initial residual = 3.8827372e-05, Final residual = 2.706566e-13, No Iterations 1
DILUPBiCG:  Solving for OCHO, Initial residual = 0.34285167, Final residual = 5.0232606e-17, No Iterations 2
DILUPBiCG:  Solving for O2CHO, Initial residual = 1.2123641e-09, Final residual = 8.4511261e-18, No Iterations 1
DILUPBiCG:  Solving for HO2CHO, Initial residual = 1.3637157e-07, Final residual = 9.5063012e-16, No Iterations 1
DILUPBiCG:  Solving for C5H11-1, Initial residual = 1.7869796e-261, Final residual = 1.7869796e-261, No Iterations 0
DILUPBiCG:  Solving for C5H11-2, Initial residual = 7.4804616e-262, Final residual = 7.4804616e-262, No Iterations 0
DILUPBiCG:  Solving for L-C7H14, Initial residual = 5.6980248e-285, Final residual = 5.6980248e-285, No Iterations 0
DILUPBiCG:  Solving for L-C7H15, Initial residual = 0, Final residual = 0, No Iterations 0
DILUPBiCG:  Solving for NC7H16, Initial residual = 8.486091e-291, Final residual = 8.486091e-291, No Iterations 0
DILUPBiCG:  Solving for L-C7H15O2, Initial residual = 1.2644653e-284, Final residual = 1.2644653e-284, No Iterations 0
DILUPBiCG:  Solving for R5-HEOOH-P, Initial residual = 0, Final residual = 0, No Iterations 0
DILUPBiCG:  Solving for R5-HEOOH-S, Initial residual = 0, Final residual = 0, No Iterations 0
DILUPBiCG:  Solving for R6-HEOOH-P, Initial residual = 0, Final residual = 0, No Iterations 0
DILUPBiCG:  Solving for R6-HEOOH-S, Initial residual = 0, Final residual = 0, No Iterations 0
DILUPBiCG:  Solving for R7-HEOOH-P, Initial residual = 0, Final residual = 0, No Iterations 0
DILUPBiCG:  Solving for R7-HEOOH-S, Initial residual = 0, Final residual = 0, No Iterations 0
DILUPBiCG:  Solving for R5-HEOOHO2-P, Initial residual = 0, Final residual = 0, No Iterations 0
DILUPBiCG:  Solving for R5-HEOOHO2-S, Initial residual = 9.5505532e-287, Final residual = 9.5505532e-287, No Iterations 0
DILUPBiCG:  Solving for R6-HEOOHO2-P, Initial residual = 0, Final residual = 0, No Iterations 0
DILUPBiCG:  Solving for R6-HEOOHO2-S, Initial residual = 2.6617881e-286, Final residual = 2.6617881e-286, No Iterations 0
DILUPBiCG:  Solving for R7-HEOOHO2-P, Initial residual = 0, Final residual = 0, No Iterations 0
DILUPBiCG:  Solving for R7-HEOOHO2-S, Initial residual = 1.0726076e-285, Final residual = 1.0726076e-285, No Iterations 0
DILUPBiCG:  Solving for R5-O-HEPOOH-P, Initial residual = 4.0860578e-286, Final residual = 4.0860578e-286, No Iterations 0
DILUPBiCG:  Solving for R5-O-HEPOOH-S, Initial residual = 6.1113214e-286, Final residual = 6.1113214e-286, No Iterations 0
DILUPBiCG:  Solving for R6-O-HEPOOH-P, Initial residual = 6.322472e-286, Final residual = 6.322472e-286, No Iterations 0
DILUPBiCG:  Solving for R6-O-HEPOOH-S, Initial residual = 8.0279356e-286, Final residual = 8.0279356e-286, No Iterations 0
DILUPBiCG:  Solving for R7-O-HEPOOH-P, Initial residual = 4.0693808e-286, Final residual = 4.0693808e-286, No Iterations 0
DILUPBiCG:  Solving for R7-O-HEPOOH-S, Initial residual = 4.7196262e-286, Final residual = 4.7196262e-286, No Iterations 0
DILUPBiCG:  Solving for C5H10-1, Initial residual = 3.4902952e-250, Final residual = 3.4902952e-250, No Iterations 0
DILUPBiCG:  Solving for R5-C7H14O, Initial residual = 1.68486e-285, Final residual = 1.68486e-285, No Iterations 0
DILUPBiCG:  Solving for N-C5H11CHO, Initial residual = 0, Final residual = 0, No Iterations 0
DILUPBiCG:  Solving for N-C5H11CO, Initial residual = 0, Final residual = 0, No Iterations 0
DILUPBiCG:  Solving for N-C4H9COCH2, Initial residual = 0, Final residual = 0, No Iterations 0
DILUPBiCG:  Solving for N-C3H7CHO, Initial residual = 1.6492333e-183, Final residual = 1.6492333e-183, No Iterations 0
DILUPBiCG:  Solving for N-C3H7CO, Initial residual = 1.7546229e-180, Final residual = 1.7546229e-180, No Iterations 0
DILUPBiCG:  Solving for N-C3H7COCH2, Initial residual = 1.0073533e-230, Final residual = 1.0073533e-230, No Iterations 0
DILUPBiCG:  Solving for C2H5CHO, Initial residual = 9.1532613e-124, Final residual = 9.1532613e-124, No Iterations 0
DILUPBiCG:  Solving for C2H5CO, Initial residual = 2.656836e-120, Final residual = 2.656836e-120, No Iterations 0
DILUPBiCG:  Solving for C2H5COCH2, Initial residual = 1.8499708e-170, Final residual = 1.8499708e-170, No Iterations 0
DILUPBiCG:  Solving for C2H5COCH3, Initial residual = 3.8919753e-163, Final residual = 3.8919753e-163, No Iterations 0
DILUPBiCG:  Solving for CH2CH2COCH3, Initial residual = 8.8253259e-168, Final residual = 8.8253259e-168, No Iterations 0
DILUPBiCG:  Solving for C2H4COC2H5-1, Initial residual = 0, Final residual = 0, No Iterations 0
DILUPBiCG:  Solving for CH2CH2CHO, Initial residual = 6.1449386e-116, Final residual = 6.1449386e-116, No Iterations 0
DILUPBiCG:  Solving for CH3COCH2, Initial residual = 4.5793942e-115, Final residual = 4.5793942e-115, No Iterations 0
DILUPBiCG:  Solving for N-C3H7COC2H4-1, Initial residual = 0, Final residual = 0, No Iterations 0
DILUPBiCG:  Solving for CH3CHCOCH3, Initial residual = 7.0043425e-170, Final residual = 7.0043425e-170, No Iterations 0
DILUPBiCG:  Solving for C2H5O2, Initial residual = 1.2925145e-90, Final residual = 1.2925145e-90, No Iterations 0
DILUPBiCG:  Solving for C2H4O2H, Initial residual = 2.8817889e-92, Final residual = 2.8817889e-92, No Iterations 0
DILUPBiCG:  Solving for N-C3H7O2, Initial residual = 5.1867987e-145, Final residual = 5.1867987e-145, No Iterations 0
DILUPBiCG:  Solving for I-C3H7O2, Initial residual = 5.8789488e-157, Final residual = 5.8789488e-157, No Iterations 0
DILUPBiCG:  Solving for A1C2HAC, Initial residual = 4.10303e-285, Final residual = 4.10303e-285, No Iterations 0
DILUPBiCG:  Solving for A2-X, Initial residual = 2.9099312e-283, Final residual = 2.9099312e-283, No Iterations 0
DILUPBiCG:  Solving for A2, Initial residual = 3.4617164e-281, Final residual = 3.4617164e-281, No Iterations 0
DILUPBiCG:  Solving for A2R5, Initial residual = 0, Final residual = 0, No Iterations 0
DILUPBiCG:  Solving for A2R5-, Initial residual = 0, Final residual = 0, No Iterations 0
DILUPBiCG:  Solving for A2R5C2H, Initial residual = 5.2182284e-282, Final residual = 5.2182284e-282, No Iterations 0
DILUPBiCG:  Solving for A2R5C2H*, Initial residual = 3.8686093e-285, Final residual = 3.8686093e-285, No Iterations 0
DILUPBiCG:  Solving for ANC2HAC, Initial residual = 0, Final residual = 0, No Iterations 0
DILUPBiCG:  Solving for A3R5-, Initial residual = 0, Final residual = 0, No Iterations 0
DILUPBiCG:  Solving for PAH, Initial residual = 1.1234943e-286, Final residual = 1.1234943e-286, No Iterations 0
DILUPBiCG:  Solving for N, Initial residual = 3.7110487e-08, Final residual = 2.5868776e-16, No Iterations 1
DILUPBiCG:  Solving for NO, Initial residual = 0.00016262658, Final residual = 1.133647e-12, No Iterations 1
DILUPBiCG:  Solving for NO2, Initial residual = 4.206734e-10, Final residual = 2.932375e-18, No Iterations 1
DILUPBiCG:  Solving for h, Initial residual = 1, Final residual = 7.0550554e-09, No Iterations 1
T gas min/max   = 1000.0009, 1000.0009
Total PAH mass : 0
Total M0 : 0
DICPCG:  Solving for p, Initial residual = 1, Final residual = 0.00079721466, No Iterations 2
DICPCG:  Solving for p, Initial residual = 0.9994587, Final residual = 0.0026825152, No Iterations 2
diagonal:  Solving for rho, Initial residual = 0, Final residual = 0, No Iterations 0
time step continuity errors : sum local = 1.8619212e-12, global = 7.0747637e-13, cumulative = 7.0747637e-13
DICPCG:  Solving for p, Initial residual = 0.77716979, Final residual = 0.0026912134, No Iterations 2
DICPCG:  Solving for p, Initial residual = 0.0079949634, Final residual = 1.9782429e-09, No Iterations 5
diagonal:  Solving for rho, Initial residual = 0, Final residual = 0, No Iterations 0
time step continuity errors : sum local = 3.3692275e-16, global = -1.1455866e-16, cumulative = 7.0736181e-13
smoothSolver:  Solving for epsilon, Initial residual = 0.0020873356, Final residual = 3.752994e-10, No Iterations 1
smoothSolver:  Solving for k, Initial residual = 1, Final residual = 1.7649133e-07, No Iterations 1
Mean pressure:4250003.7
Mean temperature:1000.0009
Mean u':0.57722843
total heat release: 0.0043942897
cell Volume V:0.00027
totalMass:0.0040360489
totalFuel:5.1618234e-23
Mean Cp/Cv':1.3146253
soot mass [kg] : 0
Wall Heat Fluxes [W]
sideWall 0
liner 0
piston 0
cylinderHead 0

  time_Other 0.00051
 time_rhoEqn 0.003475
 time_UEqn  0.034367
 time_YEqn  1.023493
 time_EEqn  1.621754
 time_pEqn  0.100789
 time_turb  1.722534
 time_Spray 0.794172
 time_ODE 33.079104
 time_soot_other 0.000378
 time_soot_correct 0
 time_soot_fields 0
 time_soot_Eqn 0
 time_soot_Mcorrect 0
 time_soot_DYsps 0
 time_soot_liner 0

ExecutionTime = 137.8 s  ClockTime = 43 s

loop times = 1
Courant Number mean: 9.6045477e-16 max: 6.3781855e-15
deltaT = 1.9607843e-06
Time = 3.92157e-06

SprayCloud.C:: evolve************

Solving 3-D cloud sprayCloud
 t0 1.9507843e-06
 t1 3.9115686e-06
 timeStep0_ 1.9607843e-06
 time  3.9215686e-06

--> Cloud: sprayCloud injector: main
    Added 98 new parcels

KinematicCloud::info()*****************
Cloud: sprayCloud
    Current number of parcels       = 98
    Current mass in system          = 1.9459264e-10
    Linear momentum                 = (4.8885661e-09 3.2570453e-11 5.9631628e-13)
   |Linear momentum|                = 4.8886747e-09
    Linear kinetic energy           = 6.4814886e-08
    main:
        number of parcels added     = 98
        mass introduced             = 1.9461285e-10
  this->surfaceFilm().info(Info); 
    Parcels absorbed into film      = 0
    New film detached parcels       = 0
  this->patchInteraction().info(Info); 
    Parcel fate (number, mass)
      - escape                      = 0, 0
      - stick                       = 0, 0
    Temperature min/max             = 374.37484, 374.80179
    Mass transfer phase change      = 2.0218145e-14
    D10, D32, Dmax (mu)             = 99.107897, 99.107909, 99.166899
    Liquid penetration 95% mass (m) = 6.6772143e-05
diagonal:  Solving for rho, Initial residual = 0, Final residual = 0, No Iterations 0
PIMPLE: iteration 1
smoothSolver:  Solving for Ux, Initial residual = 0.99997642, Final residual = 8.7539836e-08, No Iterations 1
smoothSolver:  Solving for Uy, Initial residual = 0.99307866, Final residual = 8.6864502e-08, No Iterations 1
smoothSolver:  Solving for Uz, Initial residual = 0.66053611, Final residual = 5.429779e-08, No Iterations 1
 Foam::scalar Foam::chemistryModel<CompType, ThermoType>::solve 
DILUPBiCG:  Solving for H, Initial residual = 0.99962087, Final residual = 1.985015e-16, No Iterations 2
DILUPBiCG:  Solving for O, Initial residual = 0.99999889, Final residual = 1.9857615e-16, No Iterations 2
DILUPBiCG:  Solving for OH, Initial residual = 1, Final residual = 1.9857639e-16, No Iterations 2
DILUPBiCG:  Solving for HO2, Initial residual = 1, Final residual = 1.9857529e-16, No Iterations 2
DILUPBiCG:  Solving for H2O2, Initial residual = 0.99999999, Final residual = 1.9857599e-16, No Iterations 2
DILUPBiCG:  Solving for CH, Initial residual = 2.7734135e-41, Final residual = 2.7734135e-41, No Iterations 0
DILUPBiCG:  Solving for HCO, Initial residual = 3.8119186e-13, Final residual = 3.8119186e-13, No Iterations 0
DILUPBiCG:  Solving for CH2-1, Initial residual = 3.1876473e-36, Final residual = 3.1876473e-36, No Iterations 0
DILUPBiCG:  Solving for CH2-3, Initial residual = 1.2466665e-33, Final residual = 1.2466665e-33, No Iterations 0
DILUPBiCG:  Solving for CH2O, Initial residual = 1.3519991e-16, Final residual = 1.3519991e-16, No Iterations 0
DILUPBiCG:  Solving for CH3, Initial residual = 1.6924235e-39, Final residual = 1.6924235e-39, No Iterations 0
DILUPBiCG:  Solving for CH3O, Initial residual = 3.3676353e-34, Final residual = 3.3676353e-34, No Iterations 0
DILUPBiCG:  Solving for CH3O2, Initial residual = 8.6691519e-38, Final residual = 8.6691519e-38, No Iterations 0
DILUPBiCG:  Solving for CH4, Initial residual = 1.9115267e-40, Final residual = 1.9115267e-40, No Iterations 0
DILUPBiCG:  Solving for CH3O2H, Initial residual = 9.696414e-41, Final residual = 9.696414e-41, No Iterations 0
DILUPBiCG:  Solving for C2H, Initial residual = 7.1086158e-71, Final residual = 7.1086158e-71, No Iterations 0
DILUPBiCG:  Solving for HCCO, Initial residual = 2.4153075e-52, Final residual = 2.4153075e-52, No Iterations 0
DILUPBiCG:  Solving for C2H2, Initial residual = 5.949033e-58, Final residual = 5.949033e-58, No Iterations 0
DILUPBiCG:  Solving for CH2CO, Initial residual = 1.7796909e-44, Final residual = 1.7796909e-44, No Iterations 0
DILUPBiCG:  Solving for C2H3, Initial residual = 2.2228026e-71, Final residual = 2.2228026e-71, No Iterations 0
DILUPBiCG:  Solving for CH2CHO, Initial residual = 2.535276e-58, Final residual = 2.535276e-58, No Iterations 0
DILUPBiCG:  Solving for CH3CO, Initial residual = 4.3027943e-59, Final residual = 4.3027943e-59, No Iterations 0
DILUPBiCG:  Solving for C2H4, Initial residual = 9.6690475e-72, Final residual = 9.6690475e-72, No Iterations 0
DILUPBiCG:  Solving for CH3CHO, Initial residual = 5.6425672e-63, Final residual = 5.6425672e-63, No Iterations 0
DILUPBiCG:  Solving for C2H5, Initial residual = 2.0444909e-83, Final residual = 2.0444909e-83, No Iterations 0
DILUPBiCG:  Solving for C2H5O, Initial residual = 3.4496458e-82, Final residual = 3.4496458e-82, No Iterations 0
DILUPBiCG:  Solving for C3H2, Initial residual = 6.5502423e-101, Final residual = 6.5502423e-101, No Iterations 0
DILUPBiCG:  Solving for C3H3, Initial residual = 1.5318313e-105, Final residual = 1.5318313e-105, No Iterations 0
DILUPBiCG:  Solving for C3H4, Initial residual = 4.7620372e-109, Final residual = 4.7620372e-109, No Iterations 0
DILUPBiCG:  Solving for C3H5, Initial residual = 8.6551251e-117, Final residual = 8.6551251e-117, No Iterations 0
DILUPBiCG:  Solving for C3H6, Initial residual = 5.8284195e-122, Final residual = 5.8284195e-122, No Iterations 0
DILUPBiCG:  Solving for N-C3H7, Initial residual = 4.9554604e-133, Final residual = 4.9554604e-133, No Iterations 0
DILUPBiCG:  Solving for C3H8, Initial residual = 1.8152474e-134, Final residual = 1.8152474e-134, No Iterations 0
DILUPBiCG:  Solving for C4H2, Initial residual = 8.0995502e-135, Final residual = 8.0995502e-135, No Iterations 0
DILUPBiCG:  Solving for N-C4H3, Initial residual = 5.6842683e-143, Final residual = 5.6842683e-143, No Iterations 0
DILUPBiCG:  Solving for N-C4H5, Initial residual = 4.7968677e-149, Final residual = 4.7968677e-149, No Iterations 0
DILUPBiCG:  Solving for C4H7, Initial residual = 3.1324063e-162, Final residual = 3.1324063e-162, No Iterations 0
DILUPBiCG:  Solving for C4H8-1, Initial residual = 7.5249068e-165, Final residual = 7.5249068e-165, No Iterations 0
DILUPBiCG:  Solving for C4H9-1, Initial residual = 3.7196083e-181, Final residual = 3.7196083e-181, No Iterations 0
DILUPBiCG:  Solving for C6H3, Initial residual = 7.1390971e-229, Final residual = 7.1390971e-229, No Iterations 0
DILUPBiCG:  Solving for N-C6H5, Initial residual = 7.5486873e-228, Final residual = 7.5486873e-228, No Iterations 0
DILUPBiCG:  Solving for C6H5O, Initial residual = 7.3695436e-196, Final residual = 7.3695436e-196, No Iterations 0
DILUPBiCG:  Solving for C6H5OH, Initial residual = 4.5050239e-199, Final residual = 4.5050239e-199, No Iterations 0
DILUPBiCG:  Solving for A1, Initial residual = 3.8284076e-217, Final residual = 3.8284076e-217, No Iterations 0
DILUPBiCG:  Solving for A1-, Initial residual = 1.8263666e-217, Final residual = 1.8263666e-217, No Iterations 0
DILUPBiCG:  Solving for A1C2H, Initial residual = 8.8885932e-279, Final residual = 8.8885932e-279, No Iterations 0
DILUPBiCG:  Solving for A1C2H-, Initial residual = 0, Final residual = 0, No Iterations 0
DILUPBiCG:  Solving for A1C2H*, Initial residual = 0, Final residual = 0, No Iterations 0
DILUPBiCG:  Solving for N-A1C2H2, Initial residual = 1.9226058e-286, Final residual = 1.9226058e-286, No Iterations 0
DILUPBiCG:  Solving for I-A1C2H2, Initial residual = 1.1918376e-286, Final residual = 1.1918376e-286, No Iterations 0
DILUPBiCG:  Solving for CO, Initial residual = 0.99997751, Final residual = 1.9857155e-16, No Iterations 2
DILUPBiCG:  Solving for CO2, Initial residual = 0.99999893, Final residual = 1.9857906e-16, No Iterations 2
DILUPBiCG:  Solving for H2, Initial residual = 0.99991341, Final residual = 1.9855888e-16, No Iterations 2
DILUPBiCG:  Solving for H2O, Initial residual = 1, Final residual = 1.9857954e-16, No Iterations 2
DILUPBiCG:  Solving for O2, Initial residual = 0.99999969, Final residual = 1.985792e-16, No Iterations 2
DILUPBiCG:  Solving for AR, Initial residual = 0, Final residual = 0, No Iterations 0
DILUPBiCG:  Solving for HOCH2O, Initial residual = 4.1643641e-25, Final residual = 4.1643641e-25, No Iterations 0
DILUPBiCG:  Solving for HOCHO, Initial residual = 4.9546302e-05, Final residual = 5.8234652e-13, No Iterations 1
DILUPBiCG:  Solving for OCHO, Initial residual = 0.35126772, Final residual = 6.9753514e-17, No Iterations 2
DILUPBiCG:  Solving for O2CHO, Initial residual = 1.6562571e-09, Final residual = 1.9466959e-17, No Iterations 1
DILUPBiCG:  Solving for HO2CHO, Initial residual = 1.5754695e-07, Final residual = 1.8517411e-15, No Iterations 1
DILUPBiCG:  Solving for C5H11-1, Initial residual = 1.5398237e-234, Final residual = 1.5398237e-234, No Iterations 0
DILUPBiCG:  Solving for C5H11-2, Initial residual = 6.4400577e-235, Final residual = 6.4400577e-235, No Iterations 0
DILUPBiCG:  Solving for L-C7H14, Initial residual = 5.8073091e-285, Final residual = 5.8073091e-285, No Iterations 0
DILUPBiCG:  Solving for L-C7H15, Initial residual = 0, Final residual = 0, No Iterations 0
DILUPBiCG:  Solving for NC7H16, Initial residual = 1, Final residual = 1.6134021e-15, No Iterations 2
DILUPBiCG:  Solving for L-C7H15O2, Initial residual = 1.2677389e-284, Final residual = 1.2677389e-284, No Iterations 0
DILUPBiCG:  Solving for R5-HEOOH-P, Initial residual = 0, Final residual = 0, No Iterations 0
DILUPBiCG:  Solving for R5-HEOOH-S, Initial residual = 0, Final residual = 0, No Iterations 0
DILUPBiCG:  Solving for R6-HEOOH-P, Initial residual = 0, Final residual = 0, No Iterations 0
DILUPBiCG:  Solving for R6-HEOOH-S, Initial residual = 0, Final residual = 0, No Iterations 0
DILUPBiCG:  Solving for R7-HEOOH-P, Initial residual = 0, Final residual = 0, No Iterations 0
DILUPBiCG:  Solving for R7-HEOOH-S, Initial residual = 0, Final residual = 0, No Iterations 0
DILUPBiCG:  Solving for R5-HEOOHO2-P, Initial residual = 0, Final residual = 0, No Iterations 0
DILUPBiCG:  Solving for R5-HEOOHO2-S, Initial residual = 7.7819669e-287, Final residual = 7.7819669e-287, No Iterations 0
DILUPBiCG:  Solving for R6-HEOOHO2-P, Initial residual = 0, Final residual = 0, No Iterations 0
DILUPBiCG:  Solving for R6-HEOOHO2-S, Initial residual = 2.4918737e-286, Final residual = 2.4918737e-286, No Iterations 0
DILUPBiCG:  Solving for R7-HEOOHO2-P, Initial residual = 0, Final residual = 0, No Iterations 0
DILUPBiCG:  Solving for R7-HEOOHO2-S, Initial residual = 1.0588322e-285, Final residual = 1.0588322e-285, No Iterations 0
DILUPBiCG:  Solving for R5-O-HEPOOH-P, Initial residual = 3.9231823e-286, Final residual = 3.9231823e-286, No Iterations 0
DILUPBiCG:  Solving for R5-O-HEPOOH-S, Initial residual = 5.9608849e-286, Final residual = 5.9608849e-286, No Iterations 0
DILUPBiCG:  Solving for R6-O-HEPOOH-P, Initial residual = 6.171689e-286, Final residual = 6.171689e-286, No Iterations 0
DILUPBiCG:  Solving for R6-O-HEPOOH-S, Initial residual = 7.8826786e-286, Final residual = 7.8826786e-286, No Iterations 0
DILUPBiCG:  Solving for R7-O-HEPOOH-P, Initial residual = 3.9065589e-286, Final residual = 3.9065589e-286, No Iterations 0
DILUPBiCG:  Solving for R7-O-HEPOOH-S, Initial residual = 4.5598071e-286, Final residual = 4.5598071e-286, No Iterations 0
DILUPBiCG:  Solving for C5H10-1, Initial residual = 8.8767907e-222, Final residual = 8.8767907e-222, No Iterations 0
DILUPBiCG:  Solving for R5-C7H14O, Initial residual = 1.7190123e-285, Final residual = 1.7190123e-285, No Iterations 0
DILUPBiCG:  Solving for N-C5H11CHO, Initial residual = 0, Final residual = 0, No Iterations 0
DILUPBiCG:  Solving for N-C5H11CO, Initial residual = 0, Final residual = 0, No Iterations 0
DILUPBiCG:  Solving for N-C4H9COCH2, Initial residual = 0, Final residual = 0, No Iterations 0
DILUPBiCG:  Solving for N-C3H7CHO, Initial residual = 1.8132785e-164, Final residual = 1.8132785e-164, No Iterations 0
DILUPBiCG:  Solving for N-C3H7CO, Initial residual = 1.7834808e-161, Final residual = 1.7834808e-161, No Iterations 0
DILUPBiCG:  Solving for N-C3H7COCH2, Initial residual = 9.943781e-208, Final residual = 9.943781e-208, No Iterations 0
DILUPBiCG:  Solving for C2H5CHO, Initial residual = 2.7257895e-112, Final residual = 2.7257895e-112, No Iterations 0
DILUPBiCG:  Solving for C2H5CO, Initial residual = 7.3144756e-109, Final residual = 7.3144756e-109, No Iterations 0
DILUPBiCG:  Solving for C2H5COCH2, Initial residual = 4.7276248e-155, Final residual = 4.7276248e-155, No Iterations 0
DILUPBiCG:  Solving for C2H5COCH3, Initial residual = 1.9272651e-150, Final residual = 1.9272651e-150, No Iterations 0
DILUPBiCG:  Solving for CH2CH2COCH3, Initial residual = 3.6247219e-155, Final residual = 3.6247219e-155, No Iterations 0
DILUPBiCG:  Solving for C2H4COC2H5-1, Initial residual = 0, Final residual = 0, No Iterations 0
DILUPBiCG:  Solving for CH2CH2CHO, Initial residual = 7.3165156e-107, Final residual = 7.3165156e-107, No Iterations 0
DILUPBiCG:  Solving for CH3COCH2, Initial residual = 2.3177357e-105, Final residual = 2.3177357e-105, No Iterations 0
DILUPBiCG:  Solving for N-C3H7COC2H4-1, Initial residual = 0, Final residual = 0, No Iterations 0
DILUPBiCG:  Solving for CH3CHCOCH3, Initial residual = 3.4700336e-157, Final residual = 3.4700336e-157, No Iterations 0
DILUPBiCG:  Solving for C2H5O2, Initial residual = 1.4634277e-82, Final residual = 1.4634277e-82, No Iterations 0
DILUPBiCG:  Solving for C2H4O2H, Initial residual = 3.2531443e-84, Final residual = 3.2531443e-84, No Iterations 0
DILUPBiCG:  Solving for N-C3H7O2, Initial residual = 2.3877895e-131, Final residual = 2.3877895e-131, No Iterations 0
DILUPBiCG:  Solving for I-C3H7O2, Initial residual = 0, Final residual = 0, No Iterations 0
DILUPBiCG:  Solving for A1C2HAC, Initial residual = 4.1374546e-285, Final residual = 4.1374546e-285, No Iterations 0
DILUPBiCG:  Solving for A2-X, Initial residual = 2.7412091e-283, Final residual = 2.7412091e-283, No Iterations 0
DILUPBiCG:  Solving for A2, Initial residual = 3.5290312e-281, Final residual = 3.5290312e-281, No Iterations 0
DILUPBiCG:  Solving for A2R5, Initial residual = 1.0006274e-283, Final residual = 1.0006274e-283, No Iterations 0
DILUPBiCG:  Solving for A2R5-, Initial residual = 1.5090187e-286, Final residual = 1.5090187e-286, No Iterations 0
DILUPBiCG:  Solving for A2R5C2H, Initial residual = 1.6150779e-281, Final residual = 1.6150779e-281, No Iterations 0
DILUPBiCG:  Solving for A2R5C2H*, Initial residual = 3.6844777e-285, Final residual = 3.6844777e-285, No Iterations 0
DILUPBiCG:  Solving for ANC2HAC, Initial residual = 2.4301104e-285, Final residual = 2.4301104e-285, No Iterations 0
DILUPBiCG:  Solving for A3R5-, Initial residual = 3.7164408e-285, Final residual = 3.7164408e-285, No Iterations 0
DILUPBiCG:  Solving for PAH, Initial residual = 2.9685633e-288, Final residual = 2.9685633e-288, No Iterations 0
DILUPBiCG:  Solving for N, Initial residual = 3.8191085e-08, Final residual = 4.4888201e-16, No Iterations 1
DILUPBiCG:  Solving for NO, Initial residual = 0.0001891392, Final residual = 2.2230622e-12, No Iterations 1
DILUPBiCG:  Solving for NO2, Initial residual = 6.1235832e-10, Final residual = 7.1974037e-18, No Iterations 1
DILUPBiCG:  Solving for h, Initial residual = 1, Final residual = 2.0313031e-16, No Iterations 2
T gas min/max   = 999.99639, 1000.002
Total PAH mass : 0
Total M0 : 0
DICPCG:  Solving for p, Initial residual = 1, Final residual = 0.00080385609, No Iterations 2
DICPCG:  Solving for p, Initial residual = 0.66072865, Final residual = 0.0017856296, No Iterations 2
diagonal:  Solving for rho, Initial residual = 0, Final residual = 0, No Iterations 0
time step continuity errors : sum local = 2.3430919e-12, global = 9.1524147e-13, cumulative = 1.6226033e-12
DICPCG:  Solving for p, Initial residual = 0.0033966549, Final residual = 1.1889068e-05, No Iterations 2
DICPCG:  Solving for p, Initial residual = 1.1933883e-05, Final residual = 1.2980464e-09, No Iterations 3
diagonal:  Solving for rho, Initial residual = 0, Final residual = 0, No Iterations 0
time step continuity errors : sum local = 3.3692979e-16, global = -3.4238027e-17, cumulative = 1.622569e-12
smoothSolver:  Solving for epsilon, Initial residual = 0.0020944256, Final residual = 3.7617936e-10, No Iterations 1
smoothSolver:  Solving for k, Initial residual = 0.89527653, Final residual = 1.4376146e-07, No Iterations 1
Mean pressure:4250008.3
Mean temperature:1000.002
Mean u':0.57710665
total heat release: 0.0087885836
cell Volume V:0.00027
totalMass:0.0040360489
totalFuel:1.0331658e-22
Mean Cp/Cv':1.3146252
soot mass [kg] : 0
Wall Heat Fluxes [W]
sideWall 0
liner 0
piston 0
cylinderHead 0

  time_Other 2.078206
 time_rhoEqn 0.006638
 time_UEqn  0.071999
 time_YEqn  1.8333
 time_EEqn  3.226711
 time_pEqn  0.166218
 time_turb  3.388691
 time_Spray 1.658242
 time_ODE 63.170846
 time_soot_other 0.000626
 time_soot_correct 0
 time_soot_fields 0
 time_soot_Eqn 0
 time_soot_Mcorrect 0
 time_soot_DYsps 0
 time_soot_liner 0

ExecutionTime = 261.28 s  ClockTime = 80 s

loop times = 2
Courant Number mean: 1.7992357e-10 max: 1.6517077e-06
deltaT = 1.9607843e-06
Time = 5.88235e-06

SprayCloud.C:: evolve************

Solving 3-D cloud sprayCloud
 t0 3.9115686e-06
 t1 5.8723529e-06
 timeStep0_ 3.9215686e-06
 time  5.8823529e-06

--> Cloud: sprayCloud injector: main
    Added 98 new parcels

KinematicCloud::info()*****************
Cloud: sprayCloud
    Current number of parcels       = 196
    Current mass in system          = 5.1932973e-10
    Linear momentum                 = (1.8321381e-08 -4.3994631e-12 -1.2140518e-11)
   |Linear momentum|                = 1.8321386e-08
    Linear kinetic energy           = 3.5227878e-07
    main:
        number of parcels added     = 196
        mass introduced             = 5.1941024e-10
  this->surfaceFilm().info(Info); 
    Parcels absorbed into film      = 0
    New film detached parcels       = 0
  this->patchInteraction().info(Info); 
    Parcel fate (number, mass)
      - escape                      = 0, 0
      - stick                       = 0, 0
    Temperature min/max             = 374.8551, 375.86768
    Mass transfer phase change      = 8.050261e-14
    D10, D32, Dmax (mu)             = 98.428171, 98.428758, 98.757155
    Liquid penetration 95% mass (m) = 0.00012990331
diagonal:  Solving for rho, Initial residual = 0, Final residual = 0, No Iterations 0
PIMPLE: iteration 1
smoothSolver:  Solving for Ux, Initial residual = 0.53792804, Final residual = 4.3649407e-08, No Iterations 1
smoothSolver:  Solving for Uy, Initial residual = 0.33352662, Final residual = 2.5617218e-08, No Iterations 1
smoothSolver:  Solving for Uz, Initial residual = 0.33388876, Final residual = 2.5659994e-08, No Iterations 1
 Foam::scalar Foam::chemistryModel<CompType, ThermoType>::solve 
DILUPBiCG:  Solving for H, Initial residual = 0.99962093, Final residual = 1.9857861e-16, No Iterations 2
DILUPBiCG:  Solving for O, Initial residual = 0.9999989, Final residual = 1.9853282e-16, No Iterations 2
DILUPBiCG:  Solving for OH, Initial residual = 1, Final residual = 1.98507e-16, No Iterations 2
DILUPBiCG:  Solving for HO2, Initial residual = 1, Final residual = 1.9850734e-16, No Iterations 2
DILUPBiCG:  Solving for H2O2, Initial residual = 0.99999999, Final residual = 1.9860543e-16, No Iterations 2
DILUPBiCG:  Solving for CH, Initial residual = 1.3545717e-13, Final residual = 1.3545717e-13, No Iterations 0
DILUPBiCG:  Solving for HCO, Initial residual = 0.29294112, Final residual = 4.7225989e-16, No Iterations 2
DILUPBiCG:  Solving for CH2-1, Initial residual = 2.7089663e-08, Final residual = 1.555198e-15, No Iterations 1
DILUPBiCG:  Solving for CH2-3, Initial residual = 1.0593666e-05, Final residual = 6.0817475e-13, No Iterations 1
DILUPBiCG:  Solving for CH2O, Initial residual = 0.99957783, Final residual = 1.6110305e-15, No Iterations 2
DILUPBiCG:  Solving for CH3, Initial residual = 0.99448246, Final residual = 1.6030359e-15, No Iterations 2
DILUPBiCG:  Solving for CH3O, Initial residual = 0.017327254, Final residual = 2.7928272e-17, No Iterations 2
DILUPBiCG:  Solving for CH3O2, Initial residual = 0.99989012, Final residual = 1.6117486e-15, No Iterations 2
DILUPBiCG:  Solving for CH4, Initial residual = 0.43374215, Final residual = 6.9807552e-16, No Iterations 2
DILUPBiCG:  Solving for CH3O2H, Initial residual = 0.35069953, Final residual = 5.6526119e-16, No Iterations 2
DILUPBiCG:  Solving for C2H, Initial residual = 1.0771723e-17, Final residual = 1.0771723e-17, No Iterations 0
DILUPBiCG:  Solving for HCCO, Initial residual = 8.9651259e-07, Final residual = 5.0453302e-14, No Iterations 1
DILUPBiCG:  Solving for C2H2, Initial residual = 0.00014490723, Final residual = 8.1980752e-12, No Iterations 1
DILUPBiCG:  Solving for CH2CO, Initial residual = 0.99984731, Final residual = 1.6114792e-15, No Iterations 2
DILUPBiCG:  Solving for C2H3, Initial residual = 9.8361512e-07, Final residual = 5.6047542e-14, No Iterations 1
DILUPBiCG:  Solving for CH2CHO, Initial residual = 9.8888818e-05, Final residual = 5.6561582e-12, No Iterations 1
DILUPBiCG:  Solving for CH3CO, Initial residual = 0.25897658, Final residual = 4.1753869e-16, No Iterations 2
DILUPBiCG:  Solving for C2H4, Initial residual = 0.99995554, Final residual = 1.611961e-15, No Iterations 2
DILUPBiCG:  Solving for CH3CHO, Initial residual = 0.99996752, Final residual = 1.6091691e-15, No Iterations 2
DILUPBiCG:  Solving for C2H5, Initial residual = 0.99969658, Final residual = 1.6118086e-15, No Iterations 2
DILUPBiCG:  Solving for C2H5O, Initial residual = 1.7477533e-08, Final residual = 1.0035138e-15, No Iterations 1
DILUPBiCG:  Solving for C3H2, Initial residual = 6.7783554e-34, Final residual = 6.7783554e-34, No Iterations 0
DILUPBiCG:  Solving for C3H3, Initial residual = 0.00014069825, Final residual = 7.9183379e-12, No Iterations 1
DILUPBiCG:  Solving for C3H4, Initial residual = 0.34131626, Final residual = 5.4274101e-16, No Iterations 2
DILUPBiCG:  Solving for C3H5, Initial residual = 0.45855299, Final residual = 7.3784018e-16, No Iterations 2
DILUPBiCG:  Solving for C3H6, Initial residual = 0.99997297, Final residual = 1.6096777e-15, No Iterations 2
DILUPBiCG:  Solving for N-C3H7, Initial residual = 0.99193128, Final residual = 1.5992441e-15, No Iterations 2
DILUPBiCG:  Solving for C3H8, Initial residual = 0.14340577, Final residual = 2.3114562e-16, No Iterations 2
DILUPBiCG:  Solving for C4H2, Initial residual = 7.9375387e-35, Final residual = 7.9375387e-35, No Iterations 0
DILUPBiCG:  Solving for N-C4H3, Initial residual = 6.0589885e-33, Final residual = 6.0589885e-33, No Iterations 0
DILUPBiCG:  Solving for N-C4H5, Initial residual = 9.3644697e-28, Final residual = 9.3644697e-28, No Iterations 0
DILUPBiCG:  Solving for C4H7, Initial residual = 0.38857142, Final residual = 6.2203812e-16, No Iterations 2
DILUPBiCG:  Solving for C4H8-1, Initial residual = 0.99997702, Final residual = 1.6094457e-15, No Iterations 2
DILUPBiCG:  Solving for C4H9-1, Initial residual = 0.99571333, Final residual = 1.6053645e-15, No Iterations 2
DILUPBiCG:  Solving for C6H3, Initial residual = 9.3671209e-69, Final residual = 9.3671209e-69, No Iterations 0
DILUPBiCG:  Solving for N-C6H5, Initial residual = 1.8000472e-44, Final residual = 1.8000472e-44, No Iterations 0
DILUPBiCG:  Solving for C6H5O, Initial residual = 3.3887017e-33, Final residual = 3.3887017e-33, No Iterations 0
DILUPBiCG:  Solving for C6H5OH, Initial residual = 1.7903917e-34, Final residual = 1.7903917e-34, No Iterations 0
DILUPBiCG:  Solving for A1, Initial residual = 1.7451301e-23, Final residual = 1.7451301e-23, No Iterations 0
DILUPBiCG:  Solving for A1-, Initial residual = 4.5477877e-34, Final residual = 4.5477877e-34, No Iterations 0
DILUPBiCG:  Solving for A1C2H, Initial residual = 9.6093056e-56, Final residual = 9.6093056e-56, No Iterations 0
DILUPBiCG:  Solving for A1C2H-, Initial residual = 5.2595737e-66, Final residual = 5.2595737e-66, No Iterations 0
DILUPBiCG:  Solving for A1C2H*, Initial residual = 4.9684236e-66, Final residual = 4.9684236e-66, No Iterations 0
DILUPBiCG:  Solving for N-A1C2H2, Initial residual = 1.1156728e-55, Final residual = 1.1156728e-55, No Iterations 0
DILUPBiCG:  Solving for I-A1C2H2, Initial residual = 7.0716843e-72, Final residual = 7.0716843e-72, No Iterations 0
DILUPBiCG:  Solving for CO, Initial residual = 0.99998152, Final residual = 1.8880312e-15, No Iterations 2
DILUPBiCG:  Solving for CO2, Initial residual = 0.99998868, Final residual = 1.9843254e-16, No Iterations 2
DILUPBiCG:  Solving for H2, Initial residual = 0.99991942, Final residual = 1.9858809e-16, No Iterations 2
DILUPBiCG:  Solving for H2O, Initial residual = 0.9999892, Final residual = 1.9843268e-16, No Iterations 2
DILUPBiCG:  Solving for O2, Initial residual = 0.99999117, Final residual = 1.9843301e-16, No Iterations 2
DILUPBiCG:  Solving for AR, Initial residual = 0, Final residual = 0, No Iterations 0
DILUPBiCG:  Solving for HOCH2O, Initial residual = 1.1546994e-10, Final residual = 6.6297189e-18, No Iterations 1
DILUPBiCG:  Solving for HOCHO, Initial residual = 0.00027088565, Final residual = 1.5557439e-11, No Iterations 1
DILUPBiCG:  Solving for OCHO, Initial residual = 0.35605368, Final residual = 7.0760591e-17, No Iterations 2
DILUPBiCG:  Solving for O2CHO, Initial residual = 0.99884883, Final residual = 1.6100967e-15, No Iterations 2
DILUPBiCG:  Solving for HO2CHO, Initial residual = 6.4620868e-05, Final residual = 3.7110717e-12, No Iterations 1
DILUPBiCG:  Solving for C5H11-1, Initial residual = 0.99916306, Final residual = 1.6109635e-15, No Iterations 2
DILUPBiCG:  Solving for C5H11-2, Initial residual = 0.99780361, Final residual = 1.6087754e-15, No Iterations 2
DILUPBiCG:  Solving for L-C7H14, Initial residual = 0.99999704, Final residual = 1.6121522e-15, No Iterations 2
DILUPBiCG:  Solving for L-C7H15, Initial residual = 0.99982667, Final residual = 1.6119835e-15, No Iterations 2
DILUPBiCG:  Solving for NC7H16, Initial residual = 0.42710163, Final residual = 6.8861481e-16, No Iterations 2
DILUPBiCG:  Solving for L-C7H15O2, Initial residual = 0.99997814, Final residual = 1.6122593e-15, No Iterations 2
DILUPBiCG:  Solving for R5-HEOOH-P, Initial residual = 0.95606499, Final residual = 1.5414589e-15, No Iterations 2
DILUPBiCG:  Solving for R5-HEOOH-S, Initial residual = 0.99806001, Final residual = 1.6091711e-15, No Iterations 2
DILUPBiCG:  Solving for R6-HEOOH-P, Initial residual = 0.99492691, Final residual = 1.6041183e-15, No Iterations 2
DILUPBiCG:  Solving for R6-HEOOH-S, Initial residual = 0.99860458, Final residual = 1.6100493e-15, No Iterations 2
DILUPBiCG:  Solving for R7-HEOOH-P, Initial residual = 0.99323648, Final residual = 1.6013954e-15, No Iterations 2
DILUPBiCG:  Solving for R7-HEOOH-S, Initial residual = 0.99702042, Final residual = 1.6075018e-15, No Iterations 2
DILUPBiCG:  Solving for R5-HEOOHO2-P, Initial residual = 0.99003215, Final residual = 1.5962361e-15, No Iterations 2
DILUPBiCG:  Solving for R5-HEOOHO2-S, Initial residual = 0.99972412, Final residual = 1.6118676e-15, No Iterations 2
DILUPBiCG:  Solving for R6-HEOOHO2-P, Initial residual = 0.99881652, Final residual = 1.6104004e-15, No Iterations 2
DILUPBiCG:  Solving for R6-HEOOHO2-S, Initial residual = 0.9997894, Final residual = 1.6119726e-15, No Iterations 2
DILUPBiCG:  Solving for R7-HEOOHO2-P, Initial residual = 0.99901848, Final residual = 1.6107304e-15, No Iterations 2
DILUPBiCG:  Solving for R7-HEOOHO2-S, Initial residual = 0.99956884, Final residual = 1.6116204e-15, No Iterations 2
DILUPBiCG:  Solving for R5-O-HEPOOH-P, Initial residual = 0.99036696, Final residual = 1.5967896e-15, No Iterations 2
DILUPBiCG:  Solving for R5-O-HEPOOH-S, Initial residual = 0.99986655, Final residual = 1.6121051e-15, No Iterations 2
DILUPBiCG:  Solving for R6-O-HEPOOH-P, Initial residual = 0.99958527, Final residual = 1.6116515e-15, No Iterations 2
DILUPBiCG:  Solving for R6-O-HEPOOH-S, Initial residual = 0.99987717, Final residual = 1.6121236e-15, No Iterations 2
DILUPBiCG:  Solving for R7-O-HEPOOH-P, Initial residual = 0.99815827, Final residual = 1.6093522e-15, No Iterations 2
DILUPBiCG:  Solving for R7-O-HEPOOH-S, Initial residual = 0.999257, Final residual = 1.6111239e-15, No Iterations 2
DILUPBiCG:  Solving for C5H10-1, Initial residual = 0.99998835, Final residual = 1.6102281e-15, No Iterations 2
DILUPBiCG:  Solving for R5-C7H14O, Initial residual = 0.99998333, Final residual = 1.6121282e-15, No Iterations 2
DILUPBiCG:  Solving for N-C5H11CHO, Initial residual = 0.99623493, Final residual = 1.6056555e-15, No Iterations 2
DILUPBiCG:  Solving for N-C5H11CO, Initial residual = 0.16113985, Final residual = 2.5979303e-16, No Iterations 2
DILUPBiCG:  Solving for N-C4H9COCH2, Initial residual = 0.99978666, Final residual = 1.6117757e-15, No Iterations 2
DILUPBiCG:  Solving for N-C3H7CHO, Initial residual = 0.99998191, Final residual = 1.6093896e-15, No Iterations 2
DILUPBiCG:  Solving for N-C3H7CO, Initial residual = 0.84944139, Final residual = 1.3695431e-15, No Iterations 2
DILUPBiCG:  Solving for N-C3H7COCH2, Initial residual = 0.99991135, Final residual = 1.611821e-15, No Iterations 2
DILUPBiCG:  Solving for C2H5CHO, Initial residual = 0.99997811, Final residual = 1.6094349e-15, No Iterations 2
DILUPBiCG:  Solving for C2H5CO, Initial residual = 0.86672275, Final residual = 1.3974064e-15, No Iterations 2
DILUPBiCG:  Solving for C2H5COCH2, Initial residual = 0.98248618, Final residual = 1.5840205e-15, No Iterations 2
DILUPBiCG:  Solving for C2H5COCH3, Initial residual = 0.99991334, Final residual = 1.6117433e-15, No Iterations 2
DILUPBiCG:  Solving for CH2CH2COCH3, Initial residual = 0.52517669, Final residual = 8.4673323e-16, No Iterations 2
DILUPBiCG:  Solving for C2H4COC2H5-1, Initial residual = 0.99675755, Final residual = 1.6070524e-15, No Iterations 2
DILUPBiCG:  Solving for CH2CH2CHO, Initial residual = 0.33133579, Final residual = 5.3420044e-16, No Iterations 2
DILUPBiCG:  Solving for CH3COCH2, Initial residual = 0.99283525, Final residual = 1.6007059e-15, No Iterations 2
DILUPBiCG:  Solving for N-C3H7COC2H4-1, Initial residual = 0.94271838, Final residual = 1.5199102e-15, No Iterations 2
DILUPBiCG:  Solving for CH3CHCOCH3, Initial residual = 0.0018174697, Final residual = 2.9294659e-18, No Iterations 2
DILUPBiCG:  Solving for C2H5O2, Initial residual = 0.99995462, Final residual = 1.612226e-15, No Iterations 2
DILUPBiCG:  Solving for C2H4O2H, Initial residual = 0.96527554, Final residual = 1.5563127e-15, No Iterations 2
DILUPBiCG:  Solving for N-C3H7O2, Initial residual = 0.99982229, Final residual = 1.6119648e-15, No Iterations 2
DILUPBiCG:  Solving for I-C3H7O2, Initial residual = 2.8071042e-09, Final residual = 1.6115046e-16, No Iterations 1
DILUPBiCG:  Solving for A1C2HAC, Initial residual = 4.0225914e-92, Final residual = 4.0225914e-92, No Iterations 0
DILUPBiCG:  Solving for A2-X, Initial residual = 5.2231621e-91, Final residual = 5.2231621e-91, No Iterations 0
DILUPBiCG:  Solving for A2, Initial residual = 2.5404184e-90, Final residual = 2.5404184e-90, No Iterations 0
DILUPBiCG:  Solving for A2R5, Initial residual = 4.1519806e-112, Final residual = 4.1519806e-112, No Iterations 0
DILUPBiCG:  Solving for A2R5-, Initial residual = 6.6064753e-125, Final residual = 6.6064753e-125, No Iterations 0
DILUPBiCG:  Solving for A2R5C2H, Initial residual = 4.9976743e-151, Final residual = 4.9976743e-151, No Iterations 0
DILUPBiCG:  Solving for A2R5C2H*, Initial residual = 4.0132074e-167, Final residual = 4.0132074e-167, No Iterations 0
DILUPBiCG:  Solving for ANC2HAC, Initial residual = 3.3447387e-198, Final residual = 3.3447387e-198, No Iterations 0
DILUPBiCG:  Solving for A3R5-, Initial residual = 4.2939686e-197, Final residual = 4.2939686e-197, No Iterations 0
DILUPBiCG:  Solving for PAH, Initial residual = 8.3247854e-196, Final residual = 8.3247854e-196, No Iterations 0
DILUPBiCG:  Solving for N, Initial residual = 3.8840077e-08, Final residual = 4.5658354e-16, No Iterations 1
DILUPBiCG:  Solving for NO, Initial residual = 0.00020614442, Final residual = 2.4246233e-12, No Iterations 1
DILUPBiCG:  Solving for NO2, Initial residual = 7.5738689e-10, Final residual = 8.9121932e-18, No Iterations 1
DILUPBiCG:  Solving for h, Initial residual = 0.99944945, Final residual = 2.089156e-16, No Iterations 2
T gas min/max   = 999.97675, 1000.0032
Total PAH mass : 0
Total M0 : 0
DICPCG:  Solving for p, Initial residual = 0.99938606, Final residual = 0.00084271662, No Iterations 2
DICPCG:  Solving for p, Initial residual = 0.28175731, Final residual = 0.00082672364, No Iterations 2
diagonal:  Solving for rho, Initial residual = 0, Final residual = 0, No Iterations 0
time step continuity errors : sum local = 2.7923625e-12, global = 1.1714373e-12, cumulative = 2.7940064e-12
DICPCG:  Solving for p, Initial residual = 0.00084667708, Final residual = 2.951655e-06, No Iterations 2
DICPCG:  Solving for p, Initial residual = 2.9522578e-06, Final residual = 3.0468249e-10, No Iterations 3
diagonal:  Solving for rho, Initial residual = 0, Final residual = 0, No Iterations 0
time step continuity errors : sum local = 3.3143706e-16, global = 6.7109914e-18, cumulative = 2.7940131e-12
smoothSolver:  Solving for epsilon, Initial residual = 0.0020952354, Final residual = 3.7622298e-10, No Iterations 1
smoothSolver:  Solving for k, Initial residual = 0.81040861, Final residual = 1.3009847e-07, No Iterations 1
Mean pressure:4250013.1
Mean temperature:1000.0032
Mean u':0.57698493
total heat release: 0.013182882
cell Volume V:0.00027
totalMass:0.0040360489
totalFuel:1.5502278e-22
Mean Cp/Cv':1.3146251
soot mass [kg] : 0
Wall Heat Fluxes [W]
sideWall 0
liner 0
piston 0
cylinderHead 0

  time_Other 4.129261
 time_rhoEqn 0.010812
 time_UEqn  0.108678
 time_YEqn  3.043693
 time_EEqn  4.757292
 time_pEqn  0.223175
 time_turb  4.95957
 time_Spray 2.678894
 time_ODE 91.246943
 time_soot_other 0.000966
 time_soot_correct 0
 time_soot_fields 0
 time_soot_Eqn 0
 time_soot_Mcorrect 0
 time_soot_DYsps 0
 time_soot_liner 0

ExecutionTime = 378.04 s  ClockTime = 115 s

loop times = 3
Courant Number mean: 8.9908043e-10 max: 7.027304e-06
deltaT = 1.9607843e-06
Time = 7.84314e-06

SprayCloud.C:: evolve************

Solving 3-D cloud sprayCloud
 t0 5.8723529e-06
 t1 7.8331373e-06
 timeStep0_ 5.8823529e-06
 time  7.8431373e-06

--> Cloud: sprayCloud injector: main
    Added 98 new parcels

KinematicCloud::info()*****************
Cloud: sprayCloud
    Current number of parcels       = 294
    Current mass in system          = 9.7418527e-10
    Linear momentum                 = (4.4185025e-08 3.4283699e-11 6.1798881e-11)
   |Linear momentum|                = 4.4185082e-08
    Linear kinetic energy           = 1.1110311e-06
    main:
        number of parcels added     = 294
        mass introduced             = 9.7439215e-10
  this->surfaceFilm().info(Info); 
    Parcels absorbed into film      = 0
    New film detached parcels       = 0
  this->patchInteraction().info(Info); 
    Parcel fate (number, mass)
      - escape                      = 0, 0
      - stick                       = 0, 0
    Temperature min/max             = 375.29137, 377.34435
    Mass transfer phase change      = 2.0688124e-13
    D10, D32, Dmax (mu)             = 97.626368, 97.629138, 98.352047
    Liquid penetration 95% mass (m) = 0.00019579284
diagonal:  Solving for rho, Initial residual = 0, Final residual = 0, No Iterations 0
PIMPLE: iteration 1
smoothSolver:  Solving for Ux, Initial residual = 0.412312, Final residual = 3.3045347e-08, No Iterations 1
smoothSolver:  Solving for Uy, Initial residual = 0.29075692, Final residual = 2.158731e-08, No Iterations 1
smoothSolver:  Solving for Uz, Initial residual = 0.29119846, Final residual = 2.1536067e-08, No Iterations 1
 Foam::scalar Foam::chemistryModel<CompType, ThermoType>::solve 
DILUPBiCG:  Solving for H, Initial residual = 0.99954084, Final residual = 1.9849821e-16, No Iterations 2
DILUPBiCG:  Solving for O, Initial residual = 0.99989878, Final residual = 1.9849935e-16, No Iterations 2
DILUPBiCG:  Solving for OH, Initial residual = 0.99999945, Final residual = 1.9843591e-16, No Iterations 2
DILUPBiCG:  Solving for HO2, Initial residual = 0.99999765, Final residual = 1.984362e-16, No Iterations 2
DILUPBiCG:  Solving for H2O2, Initial residual = 0.99965049, Final residual = 1.9848937e-16, No Iterations 2
DILUPBiCG:  Solving for CH, Initial residual = 6.9915248e-13, Final residual = 6.9915248e-13, No Iterations 0
DILUPBiCG:  Solving for HCO, Initial residual = 0.34070435, Final residual = 5.4878763e-16, No Iterations 2
DILUPBiCG:  Solving for CH2-1, Initial residual = 1.1033196e-07, Final residual = 6.3320619e-15, No Iterations 1
DILUPBiCG:  Solving for CH2-3, Initial residual = 4.3146802e-05, Final residual = 2.4762383e-12, No Iterations 1
DILUPBiCG:  Solving for CH2O, Initial residual = 0.51291718, Final residual = 8.2604918e-16, No Iterations 2
DILUPBiCG:  Solving for CH3, Initial residual = 0.50931052, Final residual = 8.2029428e-16, No Iterations 2
DILUPBiCG:  Solving for CH3O, Initial residual = 0.068157611, Final residual = 1.0976945e-16, No Iterations 2
DILUPBiCG:  Solving for CH3O2, Initial residual = 0.51054338, Final residual = 8.2227867e-16, No Iterations 2
DILUPBiCG:  Solving for CH4, Initial residual = 0.46836287, Final residual = 7.5374719e-16, No Iterations 2
DILUPBiCG:  Solving for CH3O2H, Initial residual = 0.43177391, Final residual = 6.9538192e-16, No Iterations 2
DILUPBiCG:  Solving for C2H, Initial residual = 8.5263372e-17, Final residual = 8.5263372e-17, No Iterations 0
DILUPBiCG:  Solving for HCCO, Initial residual = 3.3414868e-06, Final residual = 1.9044827e-13, No Iterations 1
DILUPBiCG:  Solving for C2H2, Initial residual = 0.00056346919, Final residual = 3.2191075e-11, No Iterations 1
DILUPBiCG:  Solving for CH2CO, Initial residual = 0.50435923, Final residual = 8.1225591e-16, No Iterations 2
DILUPBiCG:  Solving for C2H3, Initial residual = 4.3892899e-06, Final residual = 2.5133685e-13, No Iterations 1
DILUPBiCG:  Solving for CH2CHO, Initial residual = 0.000515954, Final residual = 2.9586377e-11, No Iterations 1
DILUPBiCG:  Solving for CH3CO, Initial residual = 0.31317552, Final residual = 5.0447265e-16, No Iterations 2
DILUPBiCG:  Solving for C2H4, Initial residual = 0.52627611, Final residual = 8.4767112e-16, No Iterations 2
DILUPBiCG:  Solving for CH3CHO, Initial residual = 0.48449885, Final residual = 7.7957579e-16, No Iterations 2
DILUPBiCG:  Solving for C2H5, Initial residual = 0.48124718, Final residual = 7.752328e-16, No Iterations 2
DILUPBiCG:  Solving for C2H5O, Initial residual = 9.1968498e-08, Final residual = 5.2791461e-15, No Iterations 1
DILUPBiCG:  Solving for C3H2, Initial residual = 1.2487893e-32, Final residual = 1.2487893e-32, No Iterations 0
DILUPBiCG:  Solving for C3H3, Initial residual = 0.00052411425, Final residual = 2.9872219e-11, No Iterations 1
DILUPBiCG:  Solving for C3H4, Initial residual = 0.39717427, Final residual = 6.3717669e-16, No Iterations 2
DILUPBiCG:  Solving for C3H5, Initial residual = 0.46443491, Final residual = 7.4738913e-16, No Iterations 2
DILUPBiCG:  Solving for C3H6, Initial residual = 0.49355083, Final residual = 7.9428617e-16, No Iterations 2
DILUPBiCG:  Solving for N-C3H7, Initial residual = 0.47981968, Final residual = 7.7290539e-16, No Iterations 2
DILUPBiCG:  Solving for C3H8, Initial residual = 0.31241646, Final residual = 5.0316889e-16, No Iterations 2
DILUPBiCG:  Solving for C4H2, Initial residual = 5.108369e-33, Final residual = 5.108369e-33, No Iterations 0
DILUPBiCG:  Solving for N-C4H3, Initial residual = 1.0809841e-31, Final residual = 1.0809841e-31, No Iterations 0
DILUPBiCG:  Solving for N-C4H5, Initial residual = 2.155992e-26, Final residual = 2.155992e-26, No Iterations 0
DILUPBiCG:  Solving for C4H7, Initial residual = 0.42874443, Final residual = 6.8900832e-16, No Iterations 2
DILUPBiCG:  Solving for C4H8-1, Initial residual = 0.48970451, Final residual = 7.8803202e-16, No Iterations 2
DILUPBiCG:  Solving for C4H9-1, Initial residual = 0.44194877, Final residual = 7.1191715e-16, No Iterations 2
DILUPBiCG:  Solving for C6H3, Initial residual = 3.8430226e-65, Final residual = 3.8430226e-65, No Iterations 0
DILUPBiCG:  Solving for N-C6H5, Initial residual = 9.8422132e-42, Final residual = 9.8422132e-42, No Iterations 0
DILUPBiCG:  Solving for C6H5O, Initial residual = 1.4683682e-30, Final residual = 1.4683682e-30, No Iterations 0
DILUPBiCG:  Solving for C6H5OH, Initial residual = 8.0440966e-32, Final residual = 8.0440966e-32, No Iterations 0
DILUPBiCG:  Solving for A1, Initial residual = 3.2537304e-22, Final residual = 3.2537304e-22, No Iterations 0
DILUPBiCG:  Solving for A1-, Initial residual = 2.4941753e-31, Final residual = 2.4941753e-31, No Iterations 0
DILUPBiCG:  Solving for A1C2H, Initial residual = 2.0134219e-51, Final residual = 2.0134219e-51, No Iterations 0
DILUPBiCG:  Solving for A1C2H-, Initial residual = 2.9562242e-60, Final residual = 2.9562242e-60, No Iterations 0
DILUPBiCG:  Solving for A1C2H*, Initial residual = 2.8241345e-60, Final residual = 2.8241345e-60, No Iterations 0
DILUPBiCG:  Solving for N-A1C2H2, Initial residual = 3.1682869e-51, Final residual = 3.1682869e-51, No Iterations 0
DILUPBiCG:  Solving for I-A1C2H2, Initial residual = 6.4098698e-66, Final residual = 6.4098698e-66, No Iterations 0
DILUPBiCG:  Solving for CO, Initial residual = 0.85903578, Final residual = 1.5653261e-15, No Iterations 2
DILUPBiCG:  Solving for CO2, Initial residual = 0.99991525, Final residual = 1.9785563e-16, No Iterations 2
DILUPBiCG:  Solving for H2, Initial residual = 0.9995769, Final residual = 1.9846058e-16, No Iterations 2
DILUPBiCG:  Solving for H2O, Initial residual = 0.99991599, Final residual = 1.978557e-16, No Iterations 2
DILUPBiCG:  Solving for O2, Initial residual = 0.99991637, Final residual = 1.9785583e-16, No Iterations 2
DILUPBiCG:  Solving for AR, Initial residual = 0, Final residual = 0, No Iterations 0
DILUPBiCG:  Solving for HOCH2O, Initial residual = 6.0401192e-10, Final residual = 3.4665967e-17, No Iterations 1
DILUPBiCG:  Solving for HOCHO, Initial residual = 0.00128928, Final residual = 7.3589282e-11, No Iterations 1
DILUPBiCG:  Solving for OCHO, Initial residual = 0.36047397, Final residual = 1.3169115e-16, No Iterations 2
DILUPBiCG:  Solving for O2CHO, Initial residual = 0.49832642, Final residual = 8.026036e-16, No Iterations 2
DILUPBiCG:  Solving for HO2CHO, Initial residual = 0.001259777, Final residual = 7.2317989e-11, No Iterations 1
DILUPBiCG:  Solving for C5H11-1, Initial residual = 0.45046629, Final residual = 7.2565657e-16, No Iterations 2
DILUPBiCG:  Solving for C5H11-2, Initial residual = 0.4639307, Final residual = 7.4734933e-16, No Iterations 2
DILUPBiCG:  Solving for L-C7H14, Initial residual = 0.51123369, Final residual = 8.2348692e-16, No Iterations 2
DILUPBiCG:  Solving for L-C7H15, Initial residual = 0.43980491, Final residual = 7.0846259e-16, No Iterations 2
DILUPBiCG:  Solving for NC7H16, Initial residual = 0.28188607, Final residual = 4.5409287e-16, No Iterations 2
DILUPBiCG:  Solving for L-C7H15O2, Initial residual = 0.44027517, Final residual = 7.09231e-16, No Iterations 2
DILUPBiCG:  Solving for R5-HEOOH-P, Initial residual = 0.43741544, Final residual = 7.0462451e-16, No Iterations 2
DILUPBiCG:  Solving for R5-HEOOH-S, Initial residual = 0.44023181, Final residual = 7.0916286e-16, No Iterations 2
DILUPBiCG:  Solving for R6-HEOOH-P, Initial residual = 0.43997095, Final residual = 7.0874207e-16, No Iterations 2
DILUPBiCG:  Solving for R6-HEOOH-S, Initial residual = 0.44027894, Final residual = 7.0923885e-16, No Iterations 2
DILUPBiCG:  Solving for R7-HEOOH-P, Initial residual = 0.43998048, Final residual = 7.0875853e-16, No Iterations 2
DILUPBiCG:  Solving for R7-HEOOH-S, Initial residual = 0.44057814, Final residual = 7.0972369e-16, No Iterations 2
DILUPBiCG:  Solving for R5-HEOOHO2-P, Initial residual = 0.43994765, Final residual = 7.0870831e-16, No Iterations 2
DILUPBiCG:  Solving for R5-HEOOHO2-S, Initial residual = 0.44088479, Final residual = 7.1022033e-16, No Iterations 2
DILUPBiCG:  Solving for R6-HEOOHO2-P, Initial residual = 0.44053884, Final residual = 7.0966115e-16, No Iterations 2
DILUPBiCG:  Solving for R6-HEOOHO2-S, Initial residual = 0.44086015, Final residual = 7.1018049e-16, No Iterations 2
DILUPBiCG:  Solving for R7-HEOOHO2-P, Initial residual = 0.440896, Final residual = 7.1023864e-16, No Iterations 2
DILUPBiCG:  Solving for R7-HEOOHO2-S, Initial residual = 0.44139402, Final residual = 7.1104225e-16, No Iterations 2
DILUPBiCG:  Solving for R5-O-HEPOOH-P, Initial residual = 0.44893717, Final residual = 7.2319761e-16, No Iterations 2
DILUPBiCG:  Solving for R5-O-HEPOOH-S, Initial residual = 0.4618431, Final residual = 7.4398857e-16, No Iterations 2
DILUPBiCG:  Solving for R6-O-HEPOOH-P, Initial residual = 0.46091121, Final residual = 7.4248721e-16, No Iterations 2
DILUPBiCG:  Solving for R6-O-HEPOOH-S, Initial residual = 0.45041987, Final residual = 7.2558648e-16, No Iterations 2
DILUPBiCG:  Solving for R7-O-HEPOOH-P, Initial residual = 0.45054359, Final residual = 7.2578585e-16, No Iterations 2
DILUPBiCG:  Solving for R7-O-HEPOOH-S, Initial residual = 0.45164182, Final residual = 7.2755522e-16, No Iterations 2
DILUPBiCG:  Solving for C5H10-1, Initial residual = 0.49697764, Final residual = 7.9998593e-16, No Iterations 2
DILUPBiCG:  Solving for R5-C7H14O, Initial residual = 0.512008, Final residual = 8.2473389e-16, No Iterations 2
DILUPBiCG:  Solving for N-C5H11CHO, Initial residual = 0.49694622, Final residual = 8.00313e-16, No Iterations 2
DILUPBiCG:  Solving for N-C5H11CO, Initial residual = 0.25107434, Final residual = 4.0442766e-16, No Iterations 2
DILUPBiCG:  Solving for N-C4H9COCH2, Initial residual = 0.5077451, Final residual = 8.1784013e-16, No Iterations 2
DILUPBiCG:  Solving for N-C3H7CHO, Initial residual = 0.48778612, Final residual = 7.8491906e-16, No Iterations 2
DILUPBiCG:  Solving for N-C3H7CO, Initial residual = 0.44229214, Final residual = 7.1246791e-16, No Iterations 2
DILUPBiCG:  Solving for N-C3H7COCH2, Initial residual = 0.49799814, Final residual = 8.0207806e-16, No Iterations 2
DILUPBiCG:  Solving for C2H5CHO, Initial residual = 0.48821824, Final residual = 7.8562744e-16, No Iterations 2
DILUPBiCG:  Solving for C2H5CO, Initial residual = 0.44266057, Final residual = 7.1306063e-16, No Iterations 2
DILUPBiCG:  Solving for C2H5COCH2, Initial residual = 0.43535476, Final residual = 7.012735e-16, No Iterations 2
DILUPBiCG:  Solving for C2H5COCH3, Initial residual = 0.50024924, Final residual = 8.056833e-16, No Iterations 2
DILUPBiCG:  Solving for CH2CH2COCH3, Initial residual = 0.38950908, Final residual = 6.2743821e-16, No Iterations 2
DILUPBiCG:  Solving for C2H4COC2H5-1, Initial residual = 0.44178446, Final residual = 7.1163968e-16, No Iterations 2
DILUPBiCG:  Solving for CH2CH2CHO, Initial residual = 0.34044614, Final residual = 5.4839705e-16, No Iterations 2
DILUPBiCG:  Solving for CH3COCH2, Initial residual = 0.43542917, Final residual = 7.0139105e-16, No Iterations 2
DILUPBiCG:  Solving for N-C3H7COC2H4-1, Initial residual = 0.43277998, Final residual = 6.9712804e-16, No Iterations 2
DILUPBiCG:  Solving for CH3CHCOCH3, Initial residual = 0.0074075533, Final residual = 1.1930141e-17, No Iterations 2
DILUPBiCG:  Solving for C2H5O2, Initial residual = 0.48576159, Final residual = 7.8250566e-16, No Iterations 2
DILUPBiCG:  Solving for C2H4O2H, Initial residual = 0.48230203, Final residual = 7.7693256e-16, No Iterations 2
DILUPBiCG:  Solving for N-C3H7O2, Initial residual = 0.48480924, Final residual = 7.8094183e-16, No Iterations 2
DILUPBiCG:  Solving for I-C3H7O2, Initial residual = 1.6901888e-08, Final residual = 9.6714726e-16, No Iterations 1
DILUPBiCG:  Solving for A1C2HAC, Initial residual = 3.1818807e-83, Final residual = 3.1818807e-83, No Iterations 0
DILUPBiCG:  Solving for A2-X, Initial residual = 4.1303777e-82, Final residual = 4.1303777e-82, No Iterations 0
DILUPBiCG:  Solving for A2, Initial residual = 1.5264432e-81, Final residual = 1.5264432e-81, No Iterations 0
DILUPBiCG:  Solving for A2R5, Initial residual = 9.0260376e-101, Final residual = 9.0260376e-101, No Iterations 0
DILUPBiCG:  Solving for A2R5-, Initial residual = 2.0972164e-111, Final residual = 2.0972164e-111, No Iterations 0
DILUPBiCG:  Solving for A2R5C2H, Initial residual = 2.8034006e-130, Final residual = 2.8034006e-130, No Iterations 0
DILUPBiCG:  Solving for A2R5C2H*, Initial residual = 2.0697248e-141, Final residual = 2.0697248e-141, No Iterations 0
DILUPBiCG:  Solving for ANC2HAC, Initial residual = 3.5993984e-164, Final residual = 3.5993984e-164, No Iterations 0
DILUPBiCG:  Solving for A3R5-, Initial residual = 4.6197408e-163, Final residual = 4.6197408e-163, No Iterations 0
DILUPBiCG:  Solving for PAH, Initial residual = 6.8743135e-162, Final residual = 6.8743135e-162, No Iterations 0
DILUPBiCG:  Solving for N, Initial residual = 3.9417438e-08, Final residual = 4.633863e-16, No Iterations 1
DILUPBiCG:  Solving for NO, Initial residual = 0.00022201153, Final residual = 2.6114363e-12, No Iterations 1
DILUPBiCG:  Solving for NO2, Initial residual = 9.0859658e-10, Final residual = 1.06914e-17, No Iterations 1
DILUPBiCG:  Solving for h, Initial residual = 0.99763385, Final residual = 2.9700877e-16, No Iterations 2
T gas min/max   = 999.9372, 1000.0044
Total PAH mass : 0
Total M0 : 0
DICPCG:  Solving for p, Initial residual = 0.99724894, Final residual = 0.00089996008, No Iterations 2
DICPCG:  Solving for p, Initial residual = 0.11326614, Final residual = 0.00034850462, No Iterations 2
diagonal:  Solving for rho, Initial residual = 0, Final residual = 0, No Iterations 0
time step continuity errors : sum local = 3.1667068e-12, global = 1.3448294e-12, cumulative = 4.1388425e-12
DICPCG:  Solving for p, Initial residual = 0.00035936202, Final residual = 1.2416178e-06, No Iterations 2
DICPCG:  Solving for p, Initial residual = 1.2427185e-06, Final residual = 4.982244e-09, No Iterations 2
diagonal:  Solving for rho, Initial residual = 0, Final residual = 0, No Iterations 0
time step continuity errors : sum local = 3.3039133e-16, global = 3.7734362e-17, cumulative = 4.1388802e-12
smoothSolver:  Solving for epsilon, Initial residual = 0.0020960449, Final residual = 3.7626741e-10, No Iterations 1
smoothSolver:  Solving for k, Initial residual = 0.74023971, Final residual = 1.1880234e-07, No Iterations 1
Mean pressure:4250017.9
Mean temperature:1000.0044
Mean u':0.57686327
total heat release: 0.017577184
cell Volume V:0.00027
totalMass:0.0040360489
totalFuel:2.0673764e-22
Mean Cp/Cv':1.314625
soot mass [kg] : 0
Wall Heat Fluxes [W]
sideWall 0
liner 0
piston 0
cylinderHead 0

  time_Other 5.935424
 time_rhoEqn 0.013686
 time_UEqn  0.13258
 time_YEqn  4.07241
 time_EEqn  6.473421
 time_pEqn  0.275769
 time_turb  6.44359
 time_Spray 3.596365
 time_ODE 110.65821
 time_soot_other 0.001276
 time_soot_correct 0
 time_soot_fields 0
 time_soot_Eqn 0
 time_soot_Mcorrect 0
 time_soot_DYsps 0
 time_soot_liner 0

ExecutionTime = 464.24 s  ClockTime = 142 s

loop times = 4
Courant Number mean: 2.522238e-09 max: 1.693015e-05
deltaT = 1.9607843e-06
Time = 9.80392e-06

SprayCloud.C:: evolve************

Solving 3-D cloud sprayCloud
 t0 7.8331373e-06
 t1 9.7939216e-06
 timeStep0_ 7.8431373e-06
 time  9.8039216e-06

--> Cloud: sprayCloud injector: main
    Added 98 new parcels

KinematicCloud::info()*****************
Cloud: sprayCloud
    Current number of parcels       = 392
    Current mass in system          = 1.5591271e-09
    Linear momentum                 = (8.5865637e-08 1.6092019e-10 8.2038788e-11)
   |Linear momentum|                = 8.5865827e-08
    Linear kinetic energy           = 2.651415e-06
    main:
        number of parcels added     = 392
        mass introduced             = 1.5595586e-09
  this->surfaceFilm().info(Info); 
    Parcels absorbed into film      = 0
    New film detached parcels       = 0
  this->patchInteraction().info(Info); 
    Parcel fate (number, mass)
      - escape                      = 0, 0
      - stick                       = 0, 0
    Temperature min/max             = 375.7015, 378.85035
    Mass transfer phase change      = 4.3154201e-13
    D10, D32, Dmax (mu)             = 96.710235, 96.718264, 97.951793
    Liquid penetration 95% mass (m) = 0.00028488516
diagonal:  Solving for rho, Initial residual = 0, Final residual = 0, No Iterations 0
PIMPLE: iteration 1
smoothSolver:  Solving for Ux, Initial residual = 0.33986883, Final residual = 2.7678619e-08, No Iterations 1
smoothSolver:  Solving for Uy, Initial residual = 0.25391218, Final residual = 1.7504221e-08, No Iterations 1
smoothSolver:  Solving for Uz, Initial residual = 0.25339559, Final residual = 1.7517791e-08, No Iterations 1
 Foam::scalar Foam::chemistryModel<CompType, ThermoType>::solve 
DILUPBiCG:  Solving for H, Initial residual = 0.99927698, Final residual = 1.975146e-16, No Iterations 2
DILUPBiCG:  Solving for O, Initial residual = 0.99981255, Final residual = 1.9855446e-16, No Iterations 2
DILUPBiCG:  Solving for OH, Initial residual = 0.99999735, Final residual = 1.9836177e-16, No Iterations 2
DILUPBiCG:  Solving for HO2, Initial residual = 0.99998836, Final residual = 1.9837788e-16, No Iterations 2
DILUPBiCG:  Solving for H2O2, Initial residual = 0.99911073, Final residual = 1.9831433e-16, No Iterations 2
DILUPBiCG:  Solving for CH, Initial residual = 2.5555693e-12, Final residual = 2.5555693e-12, No Iterations 0
DILUPBiCG:  Solving for HCO, Initial residual = 0.28217559, Final residual = 4.5385694e-16, No Iterations 2
DILUPBiCG:  Solving for CH2-1, Initial residual = 3.054704e-07, Final residual = 1.7525509e-14, No Iterations 1
DILUPBiCG:  Solving for CH2-3, Initial residual = 0.0001194548, Final residual = 6.8533853e-12, No Iterations 1
DILUPBiCG:  Solving for CH2O, Initial residual = 0.36093238, Final residual = 5.8047726e-16, No Iterations 2
DILUPBiCG:  Solving for CH3, Initial residual = 0.35878577, Final residual = 5.7704499e-16, No Iterations 2
DILUPBiCG:  Solving for CH3O, Initial residual = 0.14216945, Final residual = 2.2864935e-16, No Iterations 2
DILUPBiCG:  Solving for CH3O2, Initial residual = 0.35969888, Final residual = 5.7851315e-16, No Iterations 2
DILUPBiCG:  Solving for CH4, Initial residual = 0.38278025, Final residual = 6.1540024e-16, No Iterations 2
DILUPBiCG:  Solving for CH3O2H, Initial residual = 0.35556966, Final residual = 5.7185822e-16, No Iterations 2
DILUPBiCG:  Solving for C2H, Initial residual = 3.6408738e-16, Final residual = 3.6408738e-16, No Iterations 0
DILUPBiCG:  Solving for HCCO, Initial residual = 1.0718147e-05, Final residual = 6.1335926e-13, No Iterations 1
DILUPBiCG:  Solving for C2H2, Initial residual = 0.0017222247, Final residual = 9.8639868e-11, No Iterations 1
DILUPBiCG:  Solving for CH2CO, Initial residual = 0.35739615, Final residual = 5.7478301e-16, No Iterations 2
DILUPBiCG:  Solving for C2H3, Initial residual = 1.3888425e-05, Final residual = 7.9614549e-13, No Iterations 1
DILUPBiCG:  Solving for CH2CHO, Initial residual = 0.0017490086, Final residual = 2.8121109e-18, No Iterations 2
DILUPBiCG:  Solving for CH3CO, Initial residual = 0.26061686, Final residual = 4.1919687e-16, No Iterations 2
DILUPBiCG:  Solving for C2H4, Initial residual = 0.36791579, Final residual = 5.9175322e-16, No Iterations 2
DILUPBiCG:  Solving for CH3CHO, Initial residual = 0.34412121, Final residual = 5.5313617e-16, No Iterations 2
DILUPBiCG:  Solving for C2H5, Initial residual = 0.32099253, Final residual = 5.1631847e-16, No Iterations 2
DILUPBiCG:  Solving for C2H5O, Initial residual = 3.0903093e-07, Final residual = 1.7732203e-14, No Iterations 1
DILUPBiCG:  Solving for C3H2, Initial residual = 1.246232e-31, Final residual = 1.246232e-31, No Iterations 0
DILUPBiCG:  Solving for C3H3, Initial residual = 0.0016756849, Final residual = 9.5893497e-11, No Iterations 1
DILUPBiCG:  Solving for C3H4, Initial residual = 0.3653793, Final residual = 5.868397e-16, No Iterations 2
DILUPBiCG:  Solving for C3H5, Initial residual = 0.36465645, Final residual = 5.8622403e-16, No Iterations 2
DILUPBiCG:  Solving for C3H6, Initial residual = 0.34683908, Final residual = 5.5756022e-16, No Iterations 2
DILUPBiCG:  Solving for N-C3H7, Initial residual = 0.32172136, Final residual = 5.1748162e-16, No Iterations 2
DILUPBiCG:  Solving for C3H8, Initial residual = 0.31998891, Final residual = 5.1464488e-16, No Iterations 2
DILUPBiCG:  Solving for C4H2, Initial residual = 6.4958128e-32, Final residual = 6.4958128e-32, No Iterations 0
DILUPBiCG:  Solving for N-C4H3, Initial residual = 1.0360106e-30, Final residual = 1.0360106e-30, No Iterations 0
DILUPBiCG:  Solving for N-C4H5, Initial residual = 2.375322e-25, Final residual = 2.375322e-25, No Iterations 0
DILUPBiCG:  Solving for C4H7, Initial residual = 0.36118299, Final residual = 5.8037393e-16, No Iterations 2
DILUPBiCG:  Solving for C4H8-1, Initial residual = 0.34473775, Final residual = 5.5415303e-16, No Iterations 2
DILUPBiCG:  Solving for C4H9-1, Initial residual = 0.29651813, Final residual = 4.769467e-16, No Iterations 2
DILUPBiCG:  Solving for C6H3, Initial residual = 1.4623925e-63, Final residual = 1.4623925e-63, No Iterations 0
DILUPBiCG:  Solving for N-C6H5, Initial residual = 1.3248116e-40, Final residual = 1.3248116e-40, No Iterations 0
DILUPBiCG:  Solving for C6H5O, Initial residual = 1.5070512e-29, Final residual = 1.5070512e-29, No Iterations 0
DILUPBiCG:  Solving for C6H5OH, Initial residual = 8.6950287e-31, Final residual = 8.6950287e-31, No Iterations 0
DILUPBiCG:  Solving for A1, Initial residual = 3.2534347e-21, Final residual = 3.2534347e-21, No Iterations 0
DILUPBiCG:  Solving for A1-, Initial residual = 3.3692033e-30, Final residual = 3.3692033e-30, No Iterations 0
DILUPBiCG:  Solving for A1C2H, Initial residual = 7.787538e-50, Final residual = 7.787538e-50, No Iterations 0
DILUPBiCG:  Solving for A1C2H-, Initial residual = 2.2841814e-58, Final residual = 2.2841814e-58, No Iterations 0
DILUPBiCG:  Solving for A1C2H*, Initial residual = 2.2017556e-58, Final residual = 2.2017556e-58, No Iterations 0
DILUPBiCG:  Solving for N-A1C2H2, Initial residual = 1.89343e-49, Final residual = 1.89343e-49, No Iterations 0
DILUPBiCG:  Solving for I-A1C2H2, Initial residual = 8.1069905e-64, Final residual = 8.1069905e-64, No Iterations 0
DILUPBiCG:  Solving for CO, Initial residual = 0.65828997, Final residual = 1.1424031e-15, No Iterations 2
DILUPBiCG:  Solving for CO2, Initial residual = 0.99978752, Final residual = 1.9645606e-16, No Iterations 2
DILUPBiCG:  Solving for H2, Initial residual = 0.99907979, Final residual = 1.9828855e-16, No Iterations 2
DILUPBiCG:  Solving for H2O, Initial residual = 0.99978559, Final residual = 1.9645553e-16, No Iterations 2
DILUPBiCG:  Solving for O2, Initial residual = 0.99978515, Final residual = 1.9645556e-16, No Iterations 2
DILUPBiCG:  Solving for AR, Initial residual = 0, Final residual = 0, No Iterations 0
[...]
diagonal:  Solving for rho, Initial residual = 0, Final residual = 0, No Iterations 0
time step continuity errors : sum local = 3.6884397e-16, global = 9.9474779e-17, cumulative = 1.4253038e-11
smoothSolver:  Solving for epsilon, Initial residual = 0.0020992681, Final residual = 3.76463e-10, No Iterations 1
smoothSolver:  Solving for k, Initial residual = 0.54981555, Final residual = 8.8154225e-08, No Iterations 1
Mean pressure:4250037.3
Mean temperature:1000.0091
Mean u':0.5763772
total heat release: 0.035154435
cell Volume V:0.00027
totalMass:0.0040360489
totalFuel:4.137837e-22
Mean Cp/Cv':1.3146246
soot mass [kg] : 0
Wall Heat Fluxes [W]
sideWall 0
liner 0
piston 0
cylinderHead 0

  time_Other 13.217118
 time_rhoEqn 0.025656
 time_UEqn  0.245767
 time_YEqn  8.376925
 time_EEqn  12.49551
 time_pEqn  0.508164
 time_turb  12.700425
 time_Spray 7.860982
 time_ODE 192.25875
 time_soot_other 0.002759
 time_soot_correct 0
 time_soot_fields 0
 time_soot_Eqn 0
 time_soot_Mcorrect 0
 time_soot_DYsps 0
 time_soot_liner 0

ExecutionTime = 816.44 s  ClockTime = 252 s

loop times = 8
Courant Number mean: 4.214034e-08 max: 0.00022634624
deltaT = 1.9607843e-06
Time = 1.76471e-05

SprayCloud.C:: evolve************

Solving 3-D cloud sprayCloud
 t0 1.5676275e-05
 t1 1.7637059e-05
 timeStep0_ 1.5686275e-05
 time  1.7647059e-05

--> Cloud: sprayCloud injector: main
    Added 98 new parcels

KinematicCloud::info()*****************
Cloud: sprayCloud
    Current number of parcels       = 784
    Current mass in system          = 5.1990649e-09
    Linear momentum                 = (4.5733476e-07 -2.0026494e-10 -2.6896181e-10)
   |Linear momentum|                = 4.5733489e-07
    Linear kinetic energy           = 2.3181117e-05
    main:
        number of parcels added     = 784
        mass introduced             = 5.2023001e-09
  this->surfaceFilm().info(Info); 
    Parcels absorbed into film      = 0
    New film detached parcels       = 0
  this->patchInteraction().info(Info); 
    Parcel fate (number, mass)
      - escape                      = 0, 0
      - stick                       = 0, 0
    Temperature min/max             = 377.18232, 388.00559
    Mass transfer phase change      = 3.2351389e-12
    D10, D32, Dmax (mu)             = 92.096967, 92.188437, 96.415013
    Liquid penetration 95% mass (m) = 0.00073724163
diagonal:  Solving for rho, Initial residual = 0, Final residual = 0, No Iterations 0
PIMPLE: iteration 1
smoothSolver:  Solving for Ux, Initial residual = 0.20955782, Final residual = 2.1148227e-08, No Iterations 1
smoothSolver:  Solving for Uy, Initial residual = 0.18167062, Final residual = 1.1313448e-08, No Iterations 1
smoothSolver:  Solving for Uz, Initial residual = 0.18191402, Final residual = 1.1344107e-08, No Iterations 1
 Foam::scalar Foam::chemistryModel<CompType, ThermoType>::solve 
DILUPBiCG:  Solving for H, Initial residual = 0.99258826, Final residual = 4.9567319e-16, No Iterations 2
DILUPBiCG:  Solving for O, Initial residual = 0.99734572, Final residual = 2.9424031e-16, No Iterations 2
DILUPBiCG:  Solving for OH, Initial residual = 0.99993612, Final residual = 1.9807393e-16, No Iterations 2
DILUPBiCG:  Solving for HO2, Initial residual = 0.99965183, Final residual = 1.979134e-16, No Iterations 2
DILUPBiCG:  Solving for H2O2, Initial residual = 0.99733419, Final residual = 1.9764902e-16, No Iterations 2
DILUPBiCG:  Solving for CH, Initial residual = 9.1799096e-11, Final residual = 9.1799096e-11, No Iterations 0
DILUPBiCG:  Solving for HCO, Initial residual = 0.14998529, Final residual = 2.4075236e-16, No Iterations 2
DILUPBiCG:  Solving for CH2-1, Initial residual = 3.9411745e-06, Final residual = 2.2584695e-13, No Iterations 1
DILUPBiCG:  Solving for CH2-3, Initial residual = 0.0015343525, Final residual = 8.7925098e-11, No Iterations 1
DILUPBiCG:  Solving for CH2O, Initial residual = 0.17493338, Final residual = 2.8086165e-16, No Iterations 2
DILUPBiCG:  Solving for CH3, Initial residual = 0.17057349, Final residual = 2.7384769e-16, No Iterations 2
DILUPBiCG:  Solving for CH3O, Initial residual = 0.17509806, Final residual = 2.8110076e-16, No Iterations 2
DILUPBiCG:  Solving for CH3O2, Initial residual = 0.17201217, Final residual = 2.7615367e-16, No Iterations 2
DILUPBiCG:  Solving for CH4, Initial residual = 0.20335225, Final residual = 3.2663924e-16, No Iterations 2
DILUPBiCG:  Solving for CH3O2H, Initial residual = 0.18531113, Final residual = 2.9749214e-16, No Iterations 2
DILUPBiCG:  Solving for C2H, Initial residual = 2.2598014e-14, Final residual = 2.2598014e-14, No Iterations 0
DILUPBiCG:  Solving for HCCO, Initial residual = 0.00028147521, Final residual = 1.6140787e-11, No Iterations 1
DILUPBiCG:  Solving for C2H2, Initial residual = 0.031331781, Final residual = 5.0379103e-17, No Iterations 2
DILUPBiCG:  Solving for CH2CO, Initial residual = 0.17413786, Final residual = 2.7958311e-16, No Iterations 2
DILUPBiCG:  Solving for C2H3, Initial residual = 0.00030351478, Final residual = 1.7396579e-11, No Iterations 1
DILUPBiCG:  Solving for CH2CHO, Initial residual = 0.038239398, Final residual = 6.1392346e-17, No Iterations 2
DILUPBiCG:  Solving for CH3CO, Initial residual = 0.13955518, Final residual = 2.2399665e-16, No Iterations 2
DILUPBiCG:  Solving for C2H4, Initial residual = 0.17544665, Final residual = 2.8167362e-16, No Iterations 2
DILUPBiCG:  Solving for CH3CHO, Initial residual = 0.16761778, Final residual = 2.6931804e-16, No Iterations 2
DILUPBiCG:  Solving for C2H5, Initial residual = 0.14475292, Final residual = 2.3234717e-16, No Iterations 2
DILUPBiCG:  Solving for C2H5O, Initial residual = 1.1459042e-05, Final residual = 6.5644628e-13, No Iterations 1
DILUPBiCG:  Solving for C3H2, Initial residual = 6.0199847e-29, Final residual = 6.0199847e-29, No Iterations 0
DILUPBiCG:  Solving for C3H3, Initial residual = 0.036775752, Final residual = 5.9160184e-17, No Iterations 2
DILUPBiCG:  Solving for C3H4, Initial residual = 0.21280901, Final residual = 3.4225699e-16, No Iterations 2
DILUPBiCG:  Solving for C3H5, Initial residual = 0.18195966, Final residual = 2.9229184e-16, No Iterations 2
DILUPBiCG:  Solving for C3H6, Initial residual = 0.16763961, Final residual = 2.6929622e-16, No Iterations 2
DILUPBiCG:  Solving for N-C3H7, Initial residual = 0.1458218, Final residual = 2.3406147e-16, No Iterations 2
DILUPBiCG:  Solving for C3H8, Initial residual = 0.1772062, Final residual = 2.8451378e-16, No Iterations 2
DILUPBiCG:  Solving for C4H2, Initial residual = 9.1438569e-29, Final residual = 9.1438569e-29, No Iterations 0
DILUPBiCG:  Solving for N-C4H3, Initial residual = 9.5089019e-28, Final residual = 9.5089019e-28, No Iterations 0
DILUPBiCG:  Solving for N-C4H5, Initial residual = 2.4240199e-22, Final residual = 2.4240199e-22, No Iterations 0
DILUPBiCG:  Solving for C4H7, Initial residual = 0.19505816, Final residual = 3.1355812e-16, No Iterations 2
DILUPBiCG:  Solving for C4H8-1, Initial residual = 0.16715382, Final residual = 2.6854449e-16, No Iterations 2
DILUPBiCG:  Solving for C4H9-1, Initial residual = 0.1422752, Final residual = 2.2836913e-16, No Iterations 2
DILUPBiCG:  Solving for C6H3, Initial residual = 8.7176272e-59, Final residual = 8.7176272e-59, No Iterations 0
DILUPBiCG:  Solving for N-C6H5, Initial residual = 3.7260584e-37, Final residual = 3.7260584e-37, No Iterations 0
DILUPBiCG:  Solving for C6H5O, Initial residual = 2.9563137e-26, Final residual = 2.9563137e-26, No Iterations 0
DILUPBiCG:  Solving for C6H5OH, Initial residual = 1.8697046e-27, Final residual = 1.8697046e-27, No Iterations 0
DILUPBiCG:  Solving for A1, Initial residual = 4.4809511e-18, Final residual = 4.4809511e-18, No Iterations 0
DILUPBiCG:  Solving for A1-, Initial residual = 9.6950509e-27, Final residual = 9.6950509e-27, No Iterations 0
DILUPBiCG:  Solving for A1C2H, Initial residual = 2.5506658e-45, Final residual = 2.5506658e-45, No Iterations 0
DILUPBiCG:  Solving for A1C2H-, Initial residual = 1.0991516e-53, Final residual = 1.0991516e-53, No Iterations 0
DILUPBiCG:  Solving for A1C2H*, Initial residual = 1.0806346e-53, Final residual = 1.0806346e-53, No Iterations 0
DILUPBiCG:  Solving for N-A1C2H2, Initial residual = 1.2840717e-44, Final residual = 1.2840717e-44, No Iterations 0
DILUPBiCG:  Solving for I-A1C2H2, Initial residual = 1.794044e-58, Final residual = 1.794044e-58, No Iterations 0
DILUPBiCG:  Solving for CO, Initial residual = 0.18530989, Final residual = 2.957396e-16, No Iterations 2
DILUPBiCG:  Solving for CO2, Initial residual = 0.99780201, Final residual = 4.1358251e-16, No Iterations 2
DILUPBiCG:  Solving for H2, Initial residual = 0.99748186, Final residual = 2.0250861e-16, No Iterations 2
DILUPBiCG:  Solving for H2O, Initial residual = 0.99780293, Final residual = 4.135903e-16, No Iterations 2
DILUPBiCG:  Solving for O2, Initial residual = 0.99780206, Final residual = 4.1358501e-16, No Iterations 2
DILUPBiCG:  Solving for AR, Initial residual = 0, Final residual = 0, No Iterations 0
DILUPBiCG:  Solving for HOCH2O, Initial residual = 6.698354e-08, Final residual = 3.8380532e-15, No Iterations 1
DILUPBiCG:  Solving for HOCHO, Initial residual = 0.10109523, Final residual = 1.6256403e-16, No Iterations 2
DILUPBiCG:  Solving for OCHO, Initial residual = 0.4394256, Final residual = 6.8863471e-16, No Iterations 2
DILUPBiCG:  Solving for O2CHO, Initial residual = 0.16823234, Final residual = 2.700736e-16, No Iterations 2
DILUPBiCG:  Solving for HO2CHO, Initial residual = 0.27544515, Final residual = 4.420047e-16, No Iterations 2
DILUPBiCG:  Solving for C5H11-1, Initial residual = 0.13874987, Final residual = 2.2270933e-16, No Iterations 2
DILUPBiCG:  Solving for C5H11-2, Initial residual = 0.13843144, Final residual = 2.2219718e-16, No Iterations 2
DILUPBiCG:  Solving for L-C7H14, Initial residual = 0.16782883, Final residual = 2.6941895e-16, No Iterations 2
DILUPBiCG:  Solving for L-C7H15, Initial residual = 0.14202593, Final residual = 2.2796626e-16, No Iterations 2
DILUPBiCG:  Solving for NC7H16, Initial residual = 0.11452409, Final residual = 1.8381111e-16, No Iterations 2
DILUPBiCG:  Solving for L-C7H15O2, Initial residual = 0.14324882, Final residual = 2.2992843e-16, No Iterations 2
DILUPBiCG:  Solving for R5-HEOOH-P, Initial residual = 0.14250509, Final residual = 2.2873554e-16, No Iterations 2
DILUPBiCG:  Solving for R5-HEOOH-S, Initial residual = 0.14265634, Final residual = 2.2897821e-16, No Iterations 2
DILUPBiCG:  Solving for R6-HEOOH-P, Initial residual = 0.14264973, Final residual = 2.2896759e-16, No Iterations 2
DILUPBiCG:  Solving for R6-HEOOH-S, Initial residual = 0.14285045, Final residual = 2.2928955e-16, No Iterations 2
DILUPBiCG:  Solving for R7-HEOOH-P, Initial residual = 0.14262391, Final residual = 2.2892622e-16, No Iterations 2
DILUPBiCG:  Solving for R7-HEOOH-S, Initial residual = 0.14259897, Final residual = 2.2888626e-16, No Iterations 2
DILUPBiCG:  Solving for R5-HEOOHO2-P, Initial residual = 0.1438491, Final residual = 2.3089151e-16, No Iterations 2
DILUPBiCG:  Solving for R5-HEOOHO2-S, Initial residual = 0.14393998, Final residual = 2.3103732e-16, No Iterations 2
DILUPBiCG:  Solving for R6-HEOOHO2-P, Initial residual = 0.14392927, Final residual = 2.3102012e-16, No Iterations 2
DILUPBiCG:  Solving for R6-HEOOHO2-S, Initial residual = 0.14404628, Final residual = 2.3120782e-16, No Iterations 2
DILUPBiCG:  Solving for R7-HEOOHO2-P, Initial residual = 0.14390599, Final residual = 2.3098279e-16, No Iterations 2
DILUPBiCG:  Solving for R7-HEOOHO2-S, Initial residual = 0.14387179, Final residual = 2.3092788e-16, No Iterations 2
DILUPBiCG:  Solving for R5-O-HEPOOH-P, Initial residual = 0.14386911, Final residual = 2.3092216e-16, No Iterations 2
DILUPBiCG:  Solving for R5-O-HEPOOH-S, Initial residual = 0.143707, Final residual = 2.306612e-16, No Iterations 2
DILUPBiCG:  Solving for R6-O-HEPOOH-P, Initial residual = 0.14389596, Final residual = 2.3096438e-16, No Iterations 2
DILUPBiCG:  Solving for R6-O-HEPOOH-S, Initial residual = 0.14431059, Final residual = 2.3163012e-16, No Iterations 2
DILUPBiCG:  Solving for R7-O-HEPOOH-P, Initial residual = 0.14424829, Final residual = 2.3153015e-16, No Iterations 2
DILUPBiCG:  Solving for R7-O-HEPOOH-S, Initial residual = 0.14422339, Final residual = 2.3149005e-16, No Iterations 2
DILUPBiCG:  Solving for C5H10-1, Initial residual = 0.16673573, Final residual = 2.6779241e-16, No Iterations 2
DILUPBiCG:  Solving for R5-C7H14O, Initial residual = 0.16818224, Final residual = 2.6998602e-16, No Iterations 2
DILUPBiCG:  Solving for N-C5H11CHO, Initial residual = 0.1693651, Final residual = 2.7191364e-16, No Iterations 2
DILUPBiCG:  Solving for N-C5H11CO, Initial residual = 0.13838713, Final residual = 2.2212601e-16, No Iterations 2
DILUPBiCG:  Solving for N-C4H9COCH2, Initial residual = 0.16295657, Final residual = 2.6157575e-16, No Iterations 2
DILUPBiCG:  Solving for N-C3H7CHO, Initial residual = 0.16810899, Final residual = 2.7008202e-16, No Iterations 2
DILUPBiCG:  Solving for N-C3H7CO, Initial residual = 0.14055308, Final residual = 2.2559902e-16, No Iterations 2
DILUPBiCG:  Solving for N-C3H7COCH2, Initial residual = 0.16799461, Final residual = 2.6969046e-16, No Iterations 2
DILUPBiCG:  Solving for C2H5CHO, Initial residual = 0.16817624, Final residual = 2.7018417e-16, No Iterations 2
DILUPBiCG:  Solving for C2H5CO, Initial residual = 0.14052378, Final residual = 2.2555127e-16, No Iterations 2
DILUPBiCG:  Solving for C2H5COCH2, Initial residual = 0.14145743, Final residual = 2.2704989e-16, No Iterations 2
DILUPBiCG:  Solving for C2H5COCH3, Initial residual = 0.17005615, Final residual = 2.7301002e-16, No Iterations 2
DILUPBiCG:  Solving for CH2CH2COCH3, Initial residual = 0.14053387, Final residual = 2.2556664e-16, No Iterations 2
DILUPBiCG:  Solving for C2H4COC2H5-1, Initial residual = 0.14093524, Final residual = 2.2620885e-16, No Iterations 2
DILUPBiCG:  Solving for CH2CH2CHO, Initial residual = 0.14028606, Final residual = 2.2517007e-16, No Iterations 2
DILUPBiCG:  Solving for CH3COCH2, Initial residual = 0.14134961, Final residual = 2.2687634e-16, No Iterations 2
DILUPBiCG:  Solving for N-C3H7COC2H4-1, Initial residual = 0.1409324, Final residual = 2.2620704e-16, No Iterations 2
DILUPBiCG:  Solving for CH3CHCOCH3, Initial residual = 0.10478225, Final residual = 1.6822226e-16, No Iterations 2
DILUPBiCG:  Solving for C2H5O2, Initial residual = 0.14641536, Final residual = 2.3501421e-16, No Iterations 2
DILUPBiCG:  Solving for C2H4O2H, Initial residual = 0.14587745, Final residual = 2.3415126e-16, No Iterations 2
DILUPBiCG:  Solving for N-C3H7O2, Initial residual = 0.1476173, Final residual = 2.3694212e-16, No Iterations 2
DILUPBiCG:  Solving for I-C3H7O2, Initial residual = 3.9188784e-06, Final residual = 2.2458284e-13, No Iterations 1
DILUPBiCG:  Solving for A1C2HAC, Initial residual = 7.3616725e-74, Final residual = 7.3616725e-74, No Iterations 0
DILUPBiCG:  Solving for A2-X, Initial residual = 9.5316976e-73, Final residual = 9.5316976e-73, No Iterations 0
DILUPBiCG:  Solving for A2, Initial residual = 1.1089568e-72, Final residual = 1.1089568e-72, No Iterations 0
DILUPBiCG:  Solving for A2R5, Initial residual = 2.341699e-89, Final residual = 2.341699e-89, No Iterations 0
DILUPBiCG:  Solving for A2R5-, Initial residual = 3.5795379e-99, Final residual = 3.5795379e-99, No Iterations 0
DILUPBiCG:  Solving for A2R5C2H, Initial residual = 1.6576296e-115, Final residual = 1.6576296e-115, No Iterations 0
DILUPBiCG:  Solving for A2R5C2H*, Initial residual = 2.5793278e-125, Final residual = 2.5793278e-125, No Iterations 0
DILUPBiCG:  Solving for ANC2HAC, Initial residual = 7.6860881e-146, Final residual = 7.6860881e-146, No Iterations 0
DILUPBiCG:  Solving for A3R5-, Initial residual = 9.8425894e-145, Final residual = 9.8425894e-145, No Iterations 0
DILUPBiCG:  Solving for PAH, Initial residual = 4.2280968e-144, Final residual = 4.2280968e-144, No Iterations 0
DILUPBiCG:  Solving for N, Initial residual = 4.1785605e-08, Final residual = 5.2445294e-16, No Iterations 1
DILUPBiCG:  Solving for NO, Initial residual = 0.0002933383, Final residual = 3.4485889e-12, No Iterations 1
DILUPBiCG:  Solving for NO2, Initial residual = 1.787615e-09, Final residual = 2.1030397e-17, No Iterations 1
DILUPBiCG:  Solving for h, Initial residual = 0.92944344, Final residual = 8.7042364e-16, No Iterations 2
T gas min/max   = 998.93423, 1000.0232
Total PAH mass : 0
Total M0 : 0
DICPCG:  Solving for p, Initial residual = 0.91425151, Final residual = 0.0013415339, No Iterations 2
DICPCG:  Solving for p, Initial residual = 0.0093907807, Final residual = 4.1139793e-05, No Iterations 2
diagonal:  Solving for rho, Initial residual = 0, Final residual = 0, No Iterations 0
time step continuity errors : sum local = 7.4077134e-12, global = 5.9203418e-12, cumulative = 2.017338e-11
DICPCG:  Solving for p, Initial residual = 5.1579808e-05, Final residual = 4.6162307e-07, No Iterations 2
DICPCG:  Solving for p, Initial residual = 4.6166095e-07, Final residual = 1.2617522e-09, No Iterations 2
diagonal:  Solving for rho, Initial residual = 0, Final residual = 0, No Iterations 0
time step continuity errors : sum local = 4.1002538e-16, global = 1.6551431e-16, cumulative = 2.0173546e-11
smoothSolver:  Solving for epsilon, Initial residual = 0.0021000636, Final residual = 3.7652197e-10, No Iterations 1
smoothSolver:  Solving for k, Initial residual = 0.51658472, Final residual = 8.2810043e-08, No Iterations 1
Mean pressure:4250042.1
Mean temperature:1000.0103
Mean u':0.57625583
total heat release: 0.039548759
cell Volume V:0.00027
totalMass:0.0040360489
totalFuel:4.6563248e-22
Mean Cp/Cv':1.3146245
soot mass [kg] : 0
Wall Heat Fluxes [W]
sideWall 0
liner 0
piston 0
cylinderHead 0

  time_Other 15.132402
 time_rhoEqn 0.028816
 time_UEqn  0.272492
 time_YEqn  9.466298
 time_EEqn  14.189714
 time_pEqn  0.576264
 time_turb  14.313163
 time_Spray 9.038801
 time_ODE 212.58612
 time_soot_other 0.003042
 time_soot_correct 0
 time_soot_fields 0
 time_soot_Eqn 0
 time_soot_Mcorrect 0
 time_soot_DYsps 0
 time_soot_liner 0

ExecutionTime = 904.55 s  ClockTime = 280 s

loop times = 9
Courant Number mean: 7.1416553e-08 max: 0.00036374681
deltaT = 1.9607843e-06
Time = 1.96078e-05

SprayCloud.C:: evolve************

Solving 3-D cloud sprayCloud
 t0 1.7637059e-05
 t1 1.9597843e-05
 timeStep0_ 1.7647059e-05
 time  1.9607843e-05

--> Cloud: sprayCloud injector: main
    Added 98 new parcels

KinematicCloud::info()*****************
Cloud: sprayCloud
    Current number of parcels       = 882
    Current mass in system          = 6.4339697e-09
    Linear momentum                 = (6.0673259e-07 -2.0194158e-10 4.590265e-10)
   |Linear momentum|                = 6.067328e-07
    Linear kinetic energy           = 3.3205106e-05
    main:
        number of parcels added     = 882
        mass introduced             = 6.4387046e-09
  this->surfaceFilm().info(Info); 
    Parcels absorbed into film      = 0
    New film detached parcels       = 0
  this->patchInteraction().info(Info); 
    Parcel fate (number, mass)
      - escape                      = 0, 0
      - stick                       = 0, 0
    Temperature min/max             = 377.5211, 390.81696
    Mass transfer phase change      = 4.7348597e-12
    D10, D32, Dmax (mu)             = 90.763397, 90.89753, 96.056195
    Liquid penetration 95% mass (m) = 0.00087741622
diagonal:  Solving for rho, Initial residual = 0, Final residual = 0, No Iterations 0
PIMPLE: iteration 1
smoothSolver:  Solving for Ux, Initial residual = 0.19229593, Final residual = 2.1004559e-08, No Iterations 1
smoothSolver:  Solving for Uy, Initial residual = 0.17055149, Final residual = 1.1252293e-08, No Iterations 1
smoothSolver:  Solving for Uz, Initial residual = 0.17074807, Final residual = 1.1188286e-08, No Iterations 1
 Foam::scalar Foam::chemistryModel<CompType, ThermoType>::solve 
